*SPEF "ieee 1481-1999"
*DESIGN "twos_complement"
*DATE "23:37:59 Thursday April 24, 2025"
*VENDOR "The OpenROAD Project"
*PROGRAM "OpenROAD"
*VERSION "b16bda7e82721d10566ff7e2b68f1ff0be9f9e38"
*DESIGN_FLOW "NAME_SCOPE LOCAL" "PIN_CAP NONE"
*DIVIDER /
*DELIMITER :
*BUS_DELIMITER []
*T_UNIT 1 NS
*C_UNIT 1 PF
*R_UNIT 1 OHM
*L_UNIT 1 HENRY

*NAME_MAP
*3 in[0]
*4 in[1]
*5 in[2]
*6 in[3]
*7 in[4]
*8 in[5]
*9 in[6]
*10 in[7]
*11 out[0]
*12 out[1]
*13 out[2]
*14 out[3]
*15 out[4]
*16 out[5]
*17 out[6]
*18 out[7]
*19 _00_
*20 _01_
*21 _02_
*22 _03_
*23 _04_
*24 _05_
*25 _06_
*26 _07_
*27 _08_
*28 _09_
*29 net1
*30 net10
*31 net11
*32 net12
*33 net13
*34 net14
*35 net15
*36 net16
*37 net2
*38 net3
*39 net4
*40 net5
*41 net6
*42 net7
*43 net8
*44 net9
*45 FILLER_0_0_21
*46 FILLER_0_0_27
*47 FILLER_0_0_29
*48 FILLER_0_0_37
*49 FILLER_0_0_9
*50 FILLER_0_10_10
*51 FILLER_0_10_18
*52 FILLER_0_10_24
*53 FILLER_0_10_29
*54 FILLER_0_10_3
*55 FILLER_0_10_41
*56 FILLER_0_11_15
*57 FILLER_0_11_27
*58 FILLER_0_11_39
*59 FILLER_0_11_47
*60 FILLER_0_11_6
*61 FILLER_0_12_23
*62 FILLER_0_12_27
*63 FILLER_0_12_29
*64 FILLER_0_12_37
*65 FILLER_0_1_11
*66 FILLER_0_1_19
*67 FILLER_0_1_3
*68 FILLER_0_1_31
*69 FILLER_0_1_43
*70 FILLER_0_1_47
*71 FILLER_0_2_21
*72 FILLER_0_2_27
*73 FILLER_0_2_29
*74 FILLER_0_2_3
*75 FILLER_0_2_43
*76 FILLER_0_2_9
*77 FILLER_0_3_18
*78 FILLER_0_3_40
*79 FILLER_0_3_6
*80 FILLER_0_4_15
*81 FILLER_0_4_27
*82 FILLER_0_4_29
*83 FILLER_0_4_3
*84 FILLER_0_4_41
*85 FILLER_0_4_47
*86 FILLER_0_5_21
*87 FILLER_0_5_33
*88 FILLER_0_5_41
*89 FILLER_0_5_9
*90 FILLER_0_6_15
*91 FILLER_0_6_25
*92 FILLER_0_6_29
*93 FILLER_0_6_3
*94 FILLER_0_6_41
*95 FILLER_0_6_47
*96 FILLER_0_7_15
*97 FILLER_0_7_27
*98 FILLER_0_7_39
*99 FILLER_0_7_47
*100 FILLER_0_7_6
*101 FILLER_0_8_12
*102 FILLER_0_8_24
*103 FILLER_0_8_29
*104 FILLER_0_8_3
*105 FILLER_0_8_41
*106 FILLER_0_9_12
*107 FILLER_0_9_24
*108 FILLER_0_9_3
*109 FILLER_0_9_36
*110 PHY_EDGE_ROW_0_Left_13
*111 PHY_EDGE_ROW_0_Right_0
*112 PHY_EDGE_ROW_10_Left_23
*113 PHY_EDGE_ROW_10_Right_10
*114 PHY_EDGE_ROW_11_Left_24
*115 PHY_EDGE_ROW_11_Right_11
*116 PHY_EDGE_ROW_12_Left_25
*117 PHY_EDGE_ROW_12_Right_12
*118 PHY_EDGE_ROW_1_Left_14
*119 PHY_EDGE_ROW_1_Right_1
*120 PHY_EDGE_ROW_2_Left_15
*121 PHY_EDGE_ROW_2_Right_2
*122 PHY_EDGE_ROW_3_Left_16
*123 PHY_EDGE_ROW_3_Right_3
*124 PHY_EDGE_ROW_4_Left_17
*125 PHY_EDGE_ROW_4_Right_4
*126 PHY_EDGE_ROW_5_Left_18
*127 PHY_EDGE_ROW_5_Right_5
*128 PHY_EDGE_ROW_6_Left_19
*129 PHY_EDGE_ROW_6_Right_6
*130 PHY_EDGE_ROW_7_Left_20
*131 PHY_EDGE_ROW_7_Right_7
*132 PHY_EDGE_ROW_8_Left_21
*133 PHY_EDGE_ROW_8_Right_8
*134 PHY_EDGE_ROW_9_Left_22
*135 PHY_EDGE_ROW_9_Right_9
*136 TAP_TAPCELL_ROW_0_26
*137 TAP_TAPCELL_ROW_10_31
*138 TAP_TAPCELL_ROW_12_32
*139 TAP_TAPCELL_ROW_2_27
*140 TAP_TAPCELL_ROW_4_28
*141 TAP_TAPCELL_ROW_6_29
*142 TAP_TAPCELL_ROW_8_30
*143 _10_
*144 _11_
*145 _12_
*146 _13_
*147 _14_
*148 _15_
*149 _16_
*150 _17_
*151 _18_
*152 _19_
*153 _20_
*154 _21_
*155 _22_
*156 _23_
*157 _24_
*158 _25_
*159 _26_
*160 _27_
*161 input1
*162 input2
*163 input3
*164 input4
*165 input5
*166 input6
*167 input7
*168 input8
*169 output10
*170 output11
*171 output12
*172 output13
*173 output14
*174 output15
*175 output16
*176 output9

*PORTS
in[0] I
in[1] I
in[2] I
in[3] I
in[4] I
in[5] I
in[6] I
in[7] I
out[0] O
out[1] O
out[2] O
out[3] O
out[4] O
out[5] O
out[6] O
out[7] O

*D_NET *3 0.00106763
*CONN
*P in[0] I
*I *161:A I *D sky130_fd_sc_hd__dlymetal6s2s_1
*CAP
1 in[0] 0.000533816
2 *161:A 0.000533816
3 *161:A *162:A 0
*RES
1 in[0] *161:A 24.1943 
*END

*D_NET *4 0.00178484
*CONN
*P in[1] I
*I *162:A I *D sky130_fd_sc_hd__buf_1
*CAP
1 in[1] 0.00083444
2 *162:A 0.00083444
3 *162:A *144:B 0
4 *162:A *163:A 0
5 *162:A *29:16 0.000115959
6 *161:A *162:A 0
*RES
1 in[1] *162:A 19.6516 
*END

*D_NET *5 0.000833192
*CONN
*P in[2] I
*I *163:A I *D sky130_fd_sc_hd__buf_1
*CAP
1 in[2] 0.000366154
2 *163:A 0.000366154
3 *163:A *151:B 6.39262e-05
4 *163:A *155:A 3.69573e-05
5 *163:A *164:A 0
6 *162:A *163:A 0
*RES
1 in[2] *163:A 21.4621 
*END

*D_NET *6 0.000614258
*CONN
*P in[3] I
*I *164:A I *D sky130_fd_sc_hd__clkbuf_1
*CAP
1 in[3] 0.000307129
2 *164:A 0.000307129
3 *164:A *165:A 0
4 *163:A *164:A 0
*RES
1 in[3] *164:A 20.7838 
*END

*D_NET *7 0.000605554
*CONN
*P in[4] I
*I *165:A I *D sky130_fd_sc_hd__buf_1
*CAP
1 in[4] 0.000302777
2 *165:A 0.000302777
3 *165:A *166:A 0
4 *165:A *41:12 0
5 *164:A *165:A 0
*RES
1 in[4] *165:A 20.7838 
*END

*D_NET *8 0.000715317
*CONN
*P in[5] I
*I *166:A I *D sky130_fd_sc_hd__buf_1
*CAP
1 in[5] 0.000357659
2 *166:A 0.000357659
3 *166:A *157:A 0
4 *166:A *167:A 0
5 *166:A *41:12 0
6 *165:A *166:A 0
*RES
1 in[5] *166:A 21.9981 
*END

*D_NET *9 0.000563768
*CONN
*P in[6] I
*I *167:A I *D sky130_fd_sc_hd__buf_1
*CAP
1 in[6] 0.000281884
2 *167:A 0.000281884
3 *167:A *168:A 0
4 *166:A *167:A 0
*RES
1 in[6] *167:A 20.4803 
*END

*D_NET *10 0.00123174
*CONN
*P in[7] I
*I *168:A I *D sky130_fd_sc_hd__clkbuf_1
*CAP
1 in[7] 0.000615872
2 *168:A 0.000615872
3 *167:A *168:A 0
*RES
1 in[7] *168:A 25.0176 
*END

*D_NET *11 0.00116601
*CONN
*P out[0] O
*I *176:X O *D sky130_fd_sc_hd__buf_2
*CAP
1 out[0] 0.000583005
2 *176:X 0.000583005
3 out[0] out[1] 0
*RES
1 *176:X out[0] 23.8754 
*END

*D_NET *12 0.000441927
*CONN
*P out[1] O
*I *169:X O *D sky130_fd_sc_hd__buf_2
*CAP
1 out[1] 0.000215687
2 *169:X 0.000215687
3 out[1] out[2] 0
4 out[1] *170:A 1.05524e-05
5 out[0] out[1] 0
*RES
1 *169:X out[1] 18.1229 
*END

*D_NET *13 0.00044905
*CONN
*P out[2] O
*I *170:X O *D sky130_fd_sc_hd__buf_2
*CAP
1 out[2] 0.000213423
2 *170:X 0.000213423
3 out[2] out[3] 0
4 out[2] *30:12 2.22043e-05
5 out[1] out[2] 0
*RES
1 *170:X out[2] 18.1229 
*END

*D_NET *14 0.000642132
*CONN
*P out[3] O
*I *171:X O *D sky130_fd_sc_hd__buf_2
*CAP
1 out[3] 0.000262355
2 *171:X 0.000262355
3 out[3] out[4] 0
4 out[3] *30:12 0.000117421
5 out[2] out[3] 0
*RES
1 *171:X out[3] 19.3371 
*END

*D_NET *15 0.00044905
*CONN
*P out[4] O
*I *172:X O *D sky130_fd_sc_hd__buf_2
*CAP
1 out[4] 0.000213423
2 *172:X 0.000213423
3 out[4] out[5] 0
4 out[4] *30:12 2.22043e-05
5 out[3] out[4] 0
*RES
1 *172:X out[4] 18.1229 
*END

*D_NET *16 0.00064755
*CONN
*P out[5] O
*I *173:X O *D sky130_fd_sc_hd__buf_2
*CAP
1 out[5] 0.000276206
2 *173:X 0.000276206
3 out[5] out[6] 0
4 out[5] *28:14 1.50563e-05
5 out[5] *30:12 8.00806e-05
6 out[4] out[5] 0
*RES
1 *173:X out[5] 19.3371 
*END

*D_NET *17 0.000766946
*CONN
*P out[6] O
*I *174:X O *D sky130_fd_sc_hd__buf_2
*CAP
1 out[6] 0.000383473
2 *174:X 0.000383473
3 out[6] out[7] 0
4 out[5] out[6] 0
*RES
1 *174:X out[6] 18.5553 
*END

*D_NET *18 0.00103775
*CONN
*P out[7] O
*I *175:X O *D sky130_fd_sc_hd__clkbuf_4
*CAP
1 out[7] 0.000518877
2 *175:X 0.000518877
3 out[6] out[7] 0
*RES
1 *175:X out[7] 24.4258 
*END

*D_NET *19 0.00634708
*CONN
*I *159:A I *D sky130_fd_sc_hd__nor2_1
*I *144:B I *D sky130_fd_sc_hd__xnor2_1
*I *143:Y O *D sky130_fd_sc_hd__nor2_1
*CAP
1 *159:A 0.00070281
2 *144:B 0.00120715
3 *143:Y 0.000178311
4 *19:6 0.00208827
5 *144:B *143:A 0
6 *144:B *144:A 0
7 *144:B *151:B 0
8 *144:B *153:B 0.000173797
9 *144:B *154:A2 0.000171368
10 *144:B *26:14 0.000582363
11 *144:B *37:14 0
12 *144:B *38:12 0
13 *144:B *39:12 7.26748e-05
14 *159:A *143:A 0.000272603
15 *159:A *143:B 2.44318e-05
16 *159:A *145:A2 0.000235242
17 *159:A *147:A_N 0.000146523
18 *159:A *147:B 5.91367e-05
19 *159:A *28:14 0.00010096
20 *19:6 *143:A 0.000310236
21 *19:6 *143:B 2.12087e-05
22 *162:A *144:B 0
*RES
1 *143:Y *19:6 12.7107 
2 *19:6 *144:B 43.9786 
3 *19:6 *159:A 22.9964 
*END

*D_NET *20 0.000703185
*CONN
*I *147:A_N I *D sky130_fd_sc_hd__and2b_1
*I *145:X O *D sky130_fd_sc_hd__o31a_1
*CAP
1 *147:A_N 0.000157124
2 *145:X 0.000157124
3 *147:A_N *147:B 9.71197e-05
4 *147:A_N *153:C 4.25716e-05
5 *147:A_N *22:10 8.00806e-05
6 *147:A_N *35:12 2.26424e-05
7 *159:A *147:A_N 0.000146523
*RES
1 *145:X *147:A_N 31.8321 
*END

*D_NET *21 0.00922995
*CONN
*I *150:B I *D sky130_fd_sc_hd__and2_1
*I *153:D I *D sky130_fd_sc_hd__or4_1
*I *149:B I *D sky130_fd_sc_hd__nor2_1
*I *147:B I *D sky130_fd_sc_hd__and2b_1
*I *154:A3 I *D sky130_fd_sc_hd__o31ai_1
*I *146:X O *D sky130_fd_sc_hd__or4_2
*CAP
1 *150:B 0.000596424
2 *153:D 9.76154e-05
3 *149:B 0.000295516
4 *147:B 0.000170813
5 *154:A3 0.000422508
6 *146:X 0.000203984
7 *21:53 0.00106429
8 *21:16 0.000647942
9 *21:14 0.000706887
10 *21:8 0.000930984
11 *147:B *145:A2 5.33005e-05
12 *149:B *145:A2 5.33005e-05
13 *149:B *149:A 0
14 *149:B *23:10 0.00019964
15 *150:B *148:A 0.000785876
16 *150:B *150:A 0.000210296
17 *150:B *153:C 6.8646e-06
18 *150:B *29:16 0
19 *150:B *29:22 0
20 *150:B *38:8 0.000486752
21 *153:D *153:B 9.90431e-05
22 *153:D *36:10 6.87574e-05
23 *153:D *40:44 9.90431e-05
24 *154:A3 *145:A2 3.17148e-05
25 *154:A3 *153:C 0.000306464
26 *154:A3 *154:A1 0.000231701
27 *154:A3 *154:A2 7.85663e-05
28 *154:A3 *35:12 0
29 *21:8 *145:B1 0.000316184
30 *21:14 *145:A2 3.34366e-05
31 *21:14 *145:B1 0.00050775
32 *21:14 *153:C 1.38491e-05
33 *21:14 *154:A1 0
34 *21:14 *40:10 0
35 *21:16 *145:A2 0.000101545
36 *21:16 *154:A1 0
37 *21:53 *145:A3 2.49484e-05
38 *21:53 *145:B1 3.17148e-05
39 *21:53 *153:C 0.000195989
40 *21:53 *29:22 0
41 *21:53 *40:44 0
42 *147:A_N *147:B 9.71197e-05
43 *159:A *147:B 5.91367e-05
*RES
1 *146:X *21:8 16.8 
2 *21:8 *21:14 8.07143 
3 *21:14 *21:16 1.33929 
4 *21:16 *154:A3 23.6571 
5 *21:16 *147:B 16.8 
6 *21:14 *149:B 18.4964 
7 *21:8 *21:53 8.01786 
8 *21:53 *153:D 16.4071 
9 *21:53 *150:B 28.5679 
*END

*D_NET *22 0.00562229
*CONN
*I *148:A I *D sky130_fd_sc_hd__clkbuf_1
*I *147:X O *D sky130_fd_sc_hd__and2b_1
*CAP
1 *148:A 0.000257551
2 *147:X 0.000890599
3 *22:10 0.00114815
4 *148:A *150:A 0.000870559
5 *148:A *171:A 0.000117621
6 *22:10 *150:A 0
7 *22:10 *153:C 0
8 *22:10 *171:A 0
9 *22:10 *176:A 5.03787e-05
10 *22:10 *35:12 0.00142147
11 *147:A_N *22:10 8.00806e-05
12 *150:B *148:A 0.000785876
*RES
1 *147:X *22:10 39.675 
2 *22:10 *148:A 19.6929 
*END

*D_NET *23 0.00410306
*CONN
*I *152:B I *D sky130_fd_sc_hd__xnor2_1
*I *151:A I *D sky130_fd_sc_hd__nor2_1
*I *149:Y O *D sky130_fd_sc_hd__nor2_1
*CAP
1 *152:B 0.000286457
2 *151:A 0
3 *149:Y 0.000754375
4 *23:10 0.00104083
5 *152:B *157:A 0.000575624
6 *23:10 *145:A1 0.000515847
7 *23:10 *145:A2 5.33005e-05
8 *23:10 *149:A 0.000116033
9 *23:10 *154:A2 0.000139629
10 *23:10 *157:A 0.000421321
11 *149:B *23:10 0.00019964
*RES
1 *149:Y *23:10 31.5321 
2 *23:10 *151:A 13.8 
3 *23:10 *152:B 21.2107 
*END

*D_NET *24 0.00249227
*CONN
*I *151:B I *D sky130_fd_sc_hd__nor2_1
*I *150:X O *D sky130_fd_sc_hd__and2_1
*CAP
1 *151:B 0.000436008
2 *150:X 0.000436008
3 *151:B *155:A 0.000202842
4 *151:B *157:A 0.000777752
5 *151:B *26:14 0
6 *151:B *38:8 1.40415e-05
7 *151:B *41:12 0.000561688
8 *144:B *151:B 0
9 *163:A *151:B 6.39262e-05
*RES
1 *150:X *151:B 42.225 
*END

*D_NET *25 0.00278225
*CONN
*I *157:B I *D sky130_fd_sc_hd__xor2_1
*I *155:A I *D sky130_fd_sc_hd__and2_1
*I *153:X O *D sky130_fd_sc_hd__or4_1
*CAP
1 *157:B 0
2 *155:A 0.000180911
3 *153:X 0.000723228
4 *25:8 0.000904139
5 *25:8 *153:B 0.000694082
6 *25:8 *36:10 4.00918e-05
7 *151:B *155:A 0.000202842
8 *163:A *155:A 3.69573e-05
*RES
1 *153:X *25:8 19.1929 
2 *25:8 *155:A 22.2107 
3 *25:8 *157:B 9.3 
*END

*D_NET *26 0.00342128
*CONN
*I *155:B I *D sky130_fd_sc_hd__and2_1
*I *154:Y O *D sky130_fd_sc_hd__o31ai_1
*CAP
1 *155:B 0
2 *154:Y 0.00111063
3 *26:14 0.00111063
4 *26:14 *153:B 0.000172091
5 *26:14 *154:A2 0.00026045
6 *26:14 *156:A 0.000185118
7 *26:14 *157:A 0
8 *144:B *26:14 0.000582363
9 *151:B *26:14 0
*RES
1 *154:Y *26:14 42.0857 
2 *26:14 *155:B 9.3 
*END

*D_NET *27 0.000782206
*CONN
*I *156:A I *D sky130_fd_sc_hd__clkbuf_1
*I *155:X O *D sky130_fd_sc_hd__and2_1
*CAP
1 *156:A 0.000298544
2 *155:X 0.000298544
3 *26:14 *156:A 0.000185118
*RES
1 *155:X *156:A 23.6536 
*END

*D_NET *28 0.00474183
*CONN
*I *159:B I *D sky130_fd_sc_hd__nor2_1
*I *158:X O *D sky130_fd_sc_hd__and2_1
*CAP
1 *159:B 0
2 *158:X 0.00130505
3 *28:14 0.00130505
4 *28:14 *158:A 6.34436e-05
5 *28:14 *158:B 1.21258e-05
6 *28:14 *175:A 0.000925393
7 *28:14 *29:22 4.51611e-05
8 *28:14 *30:12 7.80929e-05
9 *28:14 *34:12 0.000708622
10 *28:14 *39:12 0.000182875
11 out[5] *28:14 1.50563e-05
12 *159:A *28:14 0.00010096
*RES
1 *158:X *28:14 42.9429 
2 *28:14 *159:B 9.3 
*END

*D_NET *29 0.00907738
*CONN
*I *160:A I *D sky130_fd_sc_hd__clkbuf_1
*I *146:B I *D sky130_fd_sc_hd__or4_2
*I *145:A2 I *D sky130_fd_sc_hd__o31a_1
*I *143:B I *D sky130_fd_sc_hd__nor2_1
*I *158:B I *D sky130_fd_sc_hd__and2_1
*I *161:X O *D sky130_fd_sc_hd__dlymetal6s2s_1
*CAP
1 *160:A 0
2 *146:B 4.70928e-05
3 *145:A2 0.000254092
4 *143:B 0.000330379
5 *158:B 0.000201725
6 *161:X 0.000787845
7 *29:37 0.000806929
8 *29:33 0.000322988
9 *29:22 0.000682032
10 *29:16 0.00121471
11 *143:B *143:A 0.000568479
12 *145:A2 *153:C 0.000146474
13 *146:B *145:A3 2.59355e-05
14 *158:B *158:A 0.000394926
15 *29:16 *144:A 6.52725e-05
16 *29:16 *170:A 0.00027107
17 *29:16 *37:10 1.92905e-05
18 *29:22 *37:10 0
19 *29:22 *40:44 0.000204001
20 *29:33 *37:10 3.17148e-05
21 *29:33 *37:12 0.000114759
22 *29:33 *40:44 0.000148903
23 *29:37 *143:A 0.000198698
24 *29:37 *154:A1 0.000247778
25 *29:37 *37:12 8.07951e-05
26 *29:37 *37:14 0.000559273
27 *29:37 *40:10 0.000384462
28 *29:37 *40:44 0.000187026
29 *147:B *145:A2 5.33005e-05
30 *149:B *145:A2 5.33005e-05
31 *150:B *29:16 0
32 *150:B *29:22 0
33 *154:A3 *145:A2 3.17148e-05
34 *159:A *143:B 2.44318e-05
35 *159:A *145:A2 0.000235242
36 *162:A *29:16 0.000115959
37 *19:6 *143:B 2.12087e-05
38 *21:14 *145:A2 3.34366e-05
39 *21:16 *145:A2 0.000101545
40 *21:53 *29:22 0
41 *23:10 *145:A2 5.33005e-05
42 *28:14 *158:B 1.21258e-05
43 *28:14 *29:22 4.51611e-05
*RES
1 *161:X *29:16 27.9964 
2 *29:16 *29:22 12.9643 
3 *29:22 *158:B 13.5321 
4 *29:22 *29:33 6.44643 
5 *29:33 *29:37 14.9464 
6 *29:37 *143:B 16.425 
7 *29:37 *145:A2 25.0143 
8 *29:33 *146:B 14.3357 
9 *29:16 *160:A 13.8 
*END

*D_NET *30 0.00357366
*CONN
*I *169:A I *D sky130_fd_sc_hd__buf_2
*I *159:Y O *D sky130_fd_sc_hd__nor2_1
*CAP
1 *169:A 0
2 *159:Y 0.000861117
3 *30:12 0.000861117
4 *30:12 *170:A 0.000403186
5 *30:12 *171:A 0.000210301
6 *30:12 *175:A 1.50181e-05
7 *30:12 *34:12 0.000902921
8 out[2] *30:12 2.22043e-05
9 out[3] *30:12 0.000117421
10 out[4] *30:12 2.22043e-05
11 out[5] *30:12 8.00806e-05
12 *28:14 *30:12 7.80929e-05
*RES
1 *159:Y *30:12 42.3357 
2 *30:12 *169:A 9.3 
*END

*D_NET *31 0.0024879
*CONN
*I *170:A I *D sky130_fd_sc_hd__buf_2
*I *144:Y O *D sky130_fd_sc_hd__xnor2_1
*CAP
1 *170:A 0.000812573
2 *144:Y 0.000812573
3 *170:A *171:A 0.000177941
4 *170:A *176:A 0
5 out[1] *170:A 1.05524e-05
6 *29:16 *170:A 0.00027107
7 *30:12 *170:A 0.000403186
*RES
1 *144:Y *170:A 43.5821 
*END

*D_NET *32 0.00339075
*CONN
*I *171:A I *D sky130_fd_sc_hd__buf_2
*I *148:X O *D sky130_fd_sc_hd__clkbuf_1
*CAP
1 *171:A 0.000892619
2 *148:X 0.000892619
3 *171:A *150:A 0.000784657
4 *171:A *175:A 0.000252623
5 *171:A *176:A 3.34672e-05
6 *171:A *34:12 2.89016e-05
7 *171:A *35:12 0
8 *148:A *171:A 0.000117621
9 *170:A *171:A 0.000177941
10 *22:10 *171:A 0
11 *30:12 *171:A 0.000210301
*RES
1 *148:X *171:A 47.2786 
*END

*D_NET *33 0.00219448
*CONN
*I *172:A I *D sky130_fd_sc_hd__buf_2
*I *151:Y O *D sky130_fd_sc_hd__nor2_1
*CAP
1 *172:A 0.000977811
2 *151:Y 0.000977811
3 *172:A *40:8 0.000238856
*RES
1 *151:Y *172:A 34.35 
*END

*D_NET *34 0.00476782
*CONN
*I *173:A I *D sky130_fd_sc_hd__buf_2
*I *152:Y O *D sky130_fd_sc_hd__xnor2_1
*CAP
1 *173:A 0
2 *152:Y 0.00147471
3 *34:12 0.00147471
4 *34:12 *153:B 7.49267e-05
5 *34:12 *175:A 0.000103032
6 *171:A *34:12 2.89016e-05
7 *28:14 *34:12 0.000708622
8 *30:12 *34:12 0.000902921
*RES
1 *152:Y *34:12 43.3357 
2 *34:12 *173:A 9.3 
*END

*D_NET *35 0.00466977
*CONN
*I *174:A I *D sky130_fd_sc_hd__buf_2
*I *156:X O *D sky130_fd_sc_hd__clkbuf_1
*CAP
1 *174:A 0
2 *156:X 0.00158733
3 *35:12 0.00158733
4 *35:12 *153:C 0
5 *35:12 *175:A 0
6 *35:12 *176:A 5.09962e-05
7 *147:A_N *35:12 2.26424e-05
8 *154:A3 *35:12 0
9 *171:A *35:12 0
10 *22:10 *35:12 0.00142147
*RES
1 *156:X *35:12 48.3893 
2 *35:12 *174:A 9.3 
*END

*D_NET *36 0.00552145
*CONN
*I *175:A I *D sky130_fd_sc_hd__clkbuf_4
*I *157:X O *D sky130_fd_sc_hd__xor2_1
*CAP
1 *175:A 0.000984841
2 *157:X 0.000809609
3 *36:10 0.00179445
4 *36:10 *153:B 0.000129714
5 *36:10 *40:44 0.000397924
6 *153:D *36:10 6.87574e-05
7 *171:A *175:A 0.000252623
8 *25:8 *36:10 4.00918e-05
9 *28:14 *175:A 0.000925393
10 *30:12 *175:A 1.50181e-05
11 *34:12 *175:A 0.000103032
12 *35:12 *175:A 0
*RES
1 *157:X *36:10 27.6929 
2 *36:10 *175:A 36.925 
*END

*D_NET *37 0.00772677
*CONN
*I *158:A I *D sky130_fd_sc_hd__and2_1
*I *146:A I *D sky130_fd_sc_hd__or4_2
*I *145:A1 I *D sky130_fd_sc_hd__o31a_1
*I *143:A I *D sky130_fd_sc_hd__nor2_1
*I *162:X O *D sky130_fd_sc_hd__buf_1
*CAP
1 *158:A 0.00011762
2 *146:A 0
3 *145:A1 0.000169345
4 *143:A 0.000221155
5 *162:X 0.000454999
6 *37:14 0.000657547
7 *37:12 0.000329185
8 *37:10 0.000634757
9 *143:A *154:A1 1.08359e-05
10 *145:A1 *149:A 0.000354698
11 *158:A *39:12 0.000354062
12 *37:10 *144:A 7.6644e-05
13 *37:10 *38:12 0.000825179
14 *37:10 *40:44 0.000201845
15 *37:12 *38:12 0.000173804
16 *37:12 *39:12 4.978e-06
17 *37:14 *39:12 1.00477e-05
18 *143:B *143:A 0.000568479
19 *144:B *143:A 0
20 *144:B *37:14 0
21 *158:B *158:A 0.000394926
22 *159:A *143:A 0.000272603
23 *19:6 *143:A 0.000310236
24 *23:10 *145:A1 0.000515847
25 *28:14 *158:A 6.34436e-05
26 *29:16 *37:10 1.92905e-05
27 *29:22 *37:10 0
28 *29:33 *37:10 3.17148e-05
29 *29:33 *37:12 0.000114759
30 *29:37 *143:A 0.000198698
31 *29:37 *37:12 8.07951e-05
32 *29:37 *37:14 0.000559273
*RES
1 *162:X *37:10 25.9964 
2 *37:10 *37:12 2.55357 
3 *37:12 *37:14 7.10714 
4 *37:14 *143:A 22.1214 
5 *37:14 *145:A1 20.3714 
6 *37:12 *146:A 13.8 
7 *37:10 *158:A 18.4429 
*END

*D_NET *38 0.00642342
*CONN
*I *144:A I *D sky130_fd_sc_hd__xnor2_1
*I *145:A3 I *D sky130_fd_sc_hd__o31a_1
*I *146:C I *D sky130_fd_sc_hd__or4_2
*I *163:X O *D sky130_fd_sc_hd__buf_1
*CAP
1 *144:A 0.000261878
2 *145:A3 0.000405262
3 *146:C 0
4 *163:X 0.000459062
5 *38:12 0.000921462
6 *38:8 0.00123714
7 *145:A3 *145:B1 0.000789403
8 *145:A3 *153:C 0.000584153
9 *38:12 *39:12 7.24799e-05
10 *144:B *144:A 0
11 *144:B *38:12 0
12 *146:B *145:A3 2.59355e-05
13 *150:B *38:8 0.000486752
14 *151:B *38:8 1.40415e-05
15 *21:53 *145:A3 2.49484e-05
16 *29:16 *144:A 6.52725e-05
17 *37:10 *144:A 7.6644e-05
18 *37:10 *38:12 0.000825179
19 *37:12 *38:12 0.000173804
*RES
1 *163:X *38:8 20.0857 
2 *38:8 *38:12 17.375 
3 *38:12 *146:C 9.3 
4 *38:12 *145:A3 30.7643 
5 *38:8 *144:A 17.7464 
*END

*D_NET *39 0.00385241
*CONN
*I *145:B1 I *D sky130_fd_sc_hd__o31a_1
*I *146:D I *D sky130_fd_sc_hd__or4_2
*I *164:X O *D sky130_fd_sc_hd__clkbuf_1
*CAP
1 *145:B1 0.000373144
2 *146:D 0
3 *164:X 0.000381975
4 *39:12 0.000755119
5 *144:B *39:12 7.26748e-05
6 *145:A3 *145:B1 0.000789403
7 *158:A *39:12 0.000354062
8 *21:8 *145:B1 0.000316184
9 *21:14 *145:B1 0.00050775
10 *21:53 *145:B1 3.17148e-05
11 *28:14 *39:12 0.000182875
12 *37:12 *39:12 4.978e-06
13 *37:14 *39:12 1.00477e-05
14 *38:12 *39:12 7.24799e-05
*RES
1 *164:X *39:12 26.3179 
2 *39:12 *146:D 9.3 
3 *39:12 *145:B1 30.5679 
*END

*D_NET *40 0.00980772
*CONN
*I *153:A I *D sky130_fd_sc_hd__or4_1
*I *150:A I *D sky130_fd_sc_hd__and2_1
*I *149:A I *D sky130_fd_sc_hd__nor2_1
*I *154:A1 I *D sky130_fd_sc_hd__o31ai_1
*I *165:X O *D sky130_fd_sc_hd__buf_1
*CAP
1 *153:A 0
2 *150:A 0.000405905
3 *149:A 0.000431571
4 *154:A1 0.000307896
5 *165:X 0.000612232
6 *40:44 0.000818235
7 *40:10 0.000928598
8 *40:8 0.00121369
9 *150:A *153:C 9.25014e-06
10 *154:A1 *153:C 0.000229777
11 *154:A1 *154:A2 0
12 *40:44 *153:B 0.000161947
13 *143:A *154:A1 1.08359e-05
14 *145:A1 *149:A 0.000354698
15 *148:A *150:A 0.000870559
16 *149:B *149:A 0
17 *150:B *150:A 0.000210296
18 *153:D *40:44 9.90431e-05
19 *154:A3 *154:A1 0.000231701
20 *171:A *150:A 0.000784657
21 *172:A *40:8 0.000238856
22 *21:14 *154:A1 0
23 *21:14 *40:10 0
24 *21:16 *154:A1 0
25 *21:53 *40:44 0
26 *22:10 *150:A 0
27 *23:10 *149:A 0.000116033
28 *29:22 *40:44 0.000204001
29 *29:33 *40:44 0.000148903
30 *29:37 *154:A1 0.000247778
31 *29:37 *40:10 0.000384462
32 *29:37 *40:44 0.000187026
33 *36:10 *40:44 0.000397924
34 *37:10 *40:44 0.000201845
*RES
1 *165:X *40:8 21.3179 
2 *40:8 *40:10 4.98214 
3 *40:10 *154:A1 21.5679 
4 *40:10 *149:A 20.7821 
5 *40:8 *40:44 17.5536 
6 *40:44 *150:A 31.7286 
7 *40:44 *153:A 9.3 
*END

*D_NET *41 0.00619855
*CONN
*I *154:A2 I *D sky130_fd_sc_hd__o31ai_1
*I *153:B I *D sky130_fd_sc_hd__or4_1
*I *152:A I *D sky130_fd_sc_hd__xnor2_1
*I *166:X O *D sky130_fd_sc_hd__buf_1
*CAP
1 *154:A2 0.000516543
2 *153:B 0.00045808
3 *152:A 0
4 *166:X 0
5 *41:12 0.00103754
6 *41:4 0.00109601
7 *154:A2 *153:C 0.000120462
8 *154:A2 *157:A 0
9 *41:12 *157:A 0.000252609
10 *144:B *153:B 0.000173797
11 *144:B *154:A2 0.000171368
12 *151:B *41:12 0.000561688
13 *153:D *153:B 9.90431e-05
14 *154:A1 *154:A2 0
15 *154:A3 *154:A2 7.85663e-05
16 *165:A *41:12 0
17 *166:A *41:12 0
18 *23:10 *154:A2 0.000139629
19 *25:8 *153:B 0.000694082
20 *26:14 *153:B 0.000172091
21 *26:14 *154:A2 0.00026045
22 *34:12 *153:B 7.49267e-05
23 *36:10 *153:B 0.000129714
24 *40:44 *153:B 0.000161947
*RES
1 *166:X *41:4 9.3 
2 *41:4 *41:12 22.8214 
3 *41:12 *152:A 9.3 
4 *41:12 *153:B 31.4964 
5 *41:4 *154:A2 27.3446 
*END

*D_NET *42 0.00497103
*CONN
*I *153:C I *D sky130_fd_sc_hd__or4_1
*I *154:B1 I *D sky130_fd_sc_hd__o31ai_1
*I *167:X O *D sky130_fd_sc_hd__buf_1
*CAP
1 *153:C 0.00130234
2 *154:B1 0
3 *167:X 0.000314452
4 *42:12 0.00161679
5 *42:12 *157:A 8.15939e-05
6 *145:A2 *153:C 0.000146474
7 *145:A3 *153:C 0.000584153
8 *147:A_N *153:C 4.25716e-05
9 *150:A *153:C 9.25014e-06
10 *150:B *153:C 6.8646e-06
11 *154:A1 *153:C 0.000229777
12 *154:A2 *153:C 0.000120462
13 *154:A3 *153:C 0.000306464
14 *21:14 *153:C 1.38491e-05
15 *21:53 *153:C 0.000195989
16 *22:10 *153:C 0
17 *35:12 *153:C 0
*RES
1 *167:X *42:12 23.6571 
2 *42:12 *154:B1 9.3 
3 *42:12 *153:C 46.3179 
*END

*D_NET *43 0.00359843
*CONN
*I *157:A I *D sky130_fd_sc_hd__xor2_1
*I *168:X O *D sky130_fd_sc_hd__clkbuf_1
*CAP
1 *157:A 0.000744767
2 *168:X 0.000744767
3 *151:B *157:A 0.000777752
4 *152:B *157:A 0.000575624
5 *154:A2 *157:A 0
6 *166:A *157:A 0
7 *23:10 *157:A 0.000421321
8 *26:14 *157:A 0
9 *41:12 *157:A 0.000252609
10 *42:12 *157:A 8.15939e-05
*RES
1 *168:X *157:A 49.5107 
*END

*D_NET *44 0.0014849
*CONN
*I *176:A I *D sky130_fd_sc_hd__buf_2
*I *160:X O *D sky130_fd_sc_hd__clkbuf_1
*CAP
1 *176:A 0.000675027
2 *160:X 0.000675027
3 *170:A *176:A 0
4 *171:A *176:A 3.34672e-05
5 *22:10 *176:A 5.03787e-05
6 *35:12 *176:A 5.09962e-05
*RES
1 *160:X *176:A 37.1357 
*END
