*SPEF "ieee 1481-1999"
*DESIGN "twos_complement"
*DATE "23:37:55 Thursday April 24, 2025"
*VENDOR "The OpenROAD Project"
*PROGRAM "OpenROAD"
*VERSION "b16bda7e82721d10566ff7e2b68f1ff0be9f9e38"
*DESIGN_FLOW "NAME_SCOPE LOCAL" "PIN_CAP NONE"
*DIVIDER /
*DELIMITER :
*BUS_DELIMITER []
*T_UNIT 1 NS
*C_UNIT 1 PF
*R_UNIT 1 OHM
*L_UNIT 1 HENRY

*NAME_MAP
*3 in[0]
*4 in[1]
*5 in[2]
*6 in[3]
*7 in[4]
*8 in[5]
*9 in[6]
*10 in[7]
*11 out[0]
*12 out[1]
*13 out[2]
*14 out[3]
*15 out[4]
*16 out[5]
*17 out[6]
*18 out[7]
*19 _00_
*20 _01_
*21 _02_
*22 _03_
*23 _04_
*24 _05_
*25 _06_
*26 _07_
*27 _08_
*28 _09_
*29 net1
*30 net10
*31 net11
*32 net12
*33 net13
*34 net14
*35 net15
*36 net16
*37 net2
*38 net3
*39 net4
*40 net5
*41 net6
*42 net7
*43 net8
*44 net9
*45 FILLER_0_0_21
*46 FILLER_0_0_27
*47 FILLER_0_0_29
*48 FILLER_0_0_37
*49 FILLER_0_0_9
*50 FILLER_0_10_10
*51 FILLER_0_10_18
*52 FILLER_0_10_24
*53 FILLER_0_10_29
*54 FILLER_0_10_3
*55 FILLER_0_10_41
*56 FILLER_0_11_15
*57 FILLER_0_11_27
*58 FILLER_0_11_39
*59 FILLER_0_11_47
*60 FILLER_0_11_6
*61 FILLER_0_12_23
*62 FILLER_0_12_27
*63 FILLER_0_12_29
*64 FILLER_0_12_37
*65 FILLER_0_1_11
*66 FILLER_0_1_19
*67 FILLER_0_1_3
*68 FILLER_0_1_31
*69 FILLER_0_1_43
*70 FILLER_0_1_47
*71 FILLER_0_2_21
*72 FILLER_0_2_27
*73 FILLER_0_2_29
*74 FILLER_0_2_3
*75 FILLER_0_2_43
*76 FILLER_0_2_9
*77 FILLER_0_3_18
*78 FILLER_0_3_40
*79 FILLER_0_3_6
*80 FILLER_0_4_15
*81 FILLER_0_4_27
*82 FILLER_0_4_29
*83 FILLER_0_4_3
*84 FILLER_0_4_41
*85 FILLER_0_4_47
*86 FILLER_0_5_21
*87 FILLER_0_5_33
*88 FILLER_0_5_41
*89 FILLER_0_5_9
*90 FILLER_0_6_15
*91 FILLER_0_6_25
*92 FILLER_0_6_29
*93 FILLER_0_6_3
*94 FILLER_0_6_41
*95 FILLER_0_6_47
*96 FILLER_0_7_15
*97 FILLER_0_7_27
*98 FILLER_0_7_39
*99 FILLER_0_7_47
*100 FILLER_0_7_6
*101 FILLER_0_8_12
*102 FILLER_0_8_24
*103 FILLER_0_8_29
*104 FILLER_0_8_3
*105 FILLER_0_8_41
*106 FILLER_0_9_12
*107 FILLER_0_9_24
*108 FILLER_0_9_3
*109 FILLER_0_9_36
*110 PHY_EDGE_ROW_0_Left_13
*111 PHY_EDGE_ROW_0_Right_0
*112 PHY_EDGE_ROW_10_Left_23
*113 PHY_EDGE_ROW_10_Right_10
*114 PHY_EDGE_ROW_11_Left_24
*115 PHY_EDGE_ROW_11_Right_11
*116 PHY_EDGE_ROW_12_Left_25
*117 PHY_EDGE_ROW_12_Right_12
*118 PHY_EDGE_ROW_1_Left_14
*119 PHY_EDGE_ROW_1_Right_1
*120 PHY_EDGE_ROW_2_Left_15
*121 PHY_EDGE_ROW_2_Right_2
*122 PHY_EDGE_ROW_3_Left_16
*123 PHY_EDGE_ROW_3_Right_3
*124 PHY_EDGE_ROW_4_Left_17
*125 PHY_EDGE_ROW_4_Right_4
*126 PHY_EDGE_ROW_5_Left_18
*127 PHY_EDGE_ROW_5_Right_5
*128 PHY_EDGE_ROW_6_Left_19
*129 PHY_EDGE_ROW_6_Right_6
*130 PHY_EDGE_ROW_7_Left_20
*131 PHY_EDGE_ROW_7_Right_7
*132 PHY_EDGE_ROW_8_Left_21
*133 PHY_EDGE_ROW_8_Right_8
*134 PHY_EDGE_ROW_9_Left_22
*135 PHY_EDGE_ROW_9_Right_9
*136 TAP_TAPCELL_ROW_0_26
*137 TAP_TAPCELL_ROW_10_31
*138 TAP_TAPCELL_ROW_12_32
*139 TAP_TAPCELL_ROW_2_27
*140 TAP_TAPCELL_ROW_4_28
*141 TAP_TAPCELL_ROW_6_29
*142 TAP_TAPCELL_ROW_8_30
*143 _10_
*144 _11_
*145 _12_
*146 _13_
*147 _14_
*148 _15_
*149 _16_
*150 _17_
*151 _18_
*152 _19_
*153 _20_
*154 _21_
*155 _22_
*156 _23_
*157 _24_
*158 _25_
*159 _26_
*160 _27_
*161 input1
*162 input2
*163 input3
*164 input4
*165 input5
*166 input6
*167 input7
*168 input8
*169 output10
*170 output11
*171 output12
*172 output13
*173 output14
*174 output15
*175 output16
*176 output9

*PORTS
in[0] I
in[1] I
in[2] I
in[3] I
in[4] I
in[5] I
in[6] I
in[7] I
out[0] O
out[1] O
out[2] O
out[3] O
out[4] O
out[5] O
out[6] O
out[7] O

*D_NET *3 0.00099732
*CONN
*P in[0] I
*I *161:A I *D sky130_fd_sc_hd__dlymetal6s2s_1
*CAP
1 in[0] 0.00049866
2 *161:A 0.00049866
3 *161:A *162:A 0
*RES
1 in[0] *161:A 9.94677 
*END

*D_NET *4 0.00161108
*CONN
*P in[1] I
*I *162:A I *D sky130_fd_sc_hd__buf_1
*CAP
1 in[1] 0.000753551
2 *162:A 0.000753551
3 *162:A *144:B 0
4 *162:A *163:A 0
5 *162:A *29:16 0.000103976
6 *161:A *162:A 0
*RES
1 in[1] *162:A 6.0923 
*END

*D_NET *5 0.000778471
*CONN
*P in[2] I
*I *163:A I *D sky130_fd_sc_hd__buf_1
*CAP
1 in[2] 0.000338718
2 *163:A 0.000338718
3 *163:A *151:B 6.5265e-05
4 *163:A *155:A 3.57702e-05
5 *163:A *164:A 0
6 *162:A *163:A 0
*RES
1 in[2] *163:A 7.65177 
*END

*D_NET *6 0.00056857
*CONN
*P in[3] I
*I *164:A I *D sky130_fd_sc_hd__clkbuf_1
*CAP
1 in[3] 0.000284285
2 *164:A 0.000284285
3 *164:A *165:A 0
4 *163:A *164:A 0
*RES
1 in[3] *164:A 7.0893 
*END

*D_NET *7 0.0005615
*CONN
*P in[4] I
*I *165:A I *D sky130_fd_sc_hd__buf_1
*CAP
1 in[4] 0.00028075
2 *165:A 0.00028075
3 *165:A *166:A 0
4 *165:A *41:12 0
5 *164:A *165:A 0
*RES
1 in[4] *165:A 7.0893 
*END

*D_NET *8 0.000666425
*CONN
*P in[5] I
*I *166:A I *D sky130_fd_sc_hd__buf_1
*CAP
1 in[5] 0.000333212
2 *166:A 0.000333212
3 *166:A *157:A 0
4 *166:A *167:A 0
5 *166:A *41:12 0
6 *165:A *166:A 0
*RES
1 in[5] *166:A 8.1093 
*END

*D_NET *9 0.000523624
*CONN
*P in[6] I
*I *167:A I *D sky130_fd_sc_hd__buf_1
*CAP
1 in[6] 0.000261812
2 *167:A 0.000261812
3 *167:A *168:A 0
4 *166:A *167:A 0
*RES
1 in[6] *167:A 6.8343 
*END

*D_NET *10 0.00115517
*CONN
*P in[7] I
*I *168:A I *D sky130_fd_sc_hd__clkbuf_1
*CAP
1 in[7] 0.000577586
2 *168:A 0.000577586
3 *167:A *168:A 0
*RES
1 in[7] *168:A 10.6316 
*END

*D_NET *11 0.00109227
*CONN
*P out[0] O
*I *176:X O *D sky130_fd_sc_hd__buf_2
*CAP
1 out[0] 0.000546133
2 *176:X 0.000546133
3 out[0] out[1] 0
*RES
1 *176:X out[0] 9.66983 
*END

*D_NET *12 0.000414283
*CONN
*P out[1] O
*I *169:X O *D sky130_fd_sc_hd__buf_2
*CAP
1 out[1] 0.000201954
2 *169:X 0.000201954
3 out[1] out[2] 0
4 out[1] *170:A 1.03755e-05
5 out[0] out[1] 0
*RES
1 *169:X out[1] 4.84677 
*END

*D_NET *13 0.000420865
*CONN
*P out[2] O
*I *170:X O *D sky130_fd_sc_hd__buf_2
*CAP
1 out[2] 0.00020015
2 *170:X 0.00020015
3 out[2] out[3] 0
4 out[2] *169:A 2.05641e-05
5 out[1] out[2] 0
*RES
1 *170:X out[2] 4.84677 
*END

*D_NET *14 0.000595927
*CONN
*P out[3] O
*I *171:X O *D sky130_fd_sc_hd__buf_2
*CAP
1 out[3] 0.00024364
2 *171:X 0.00024364
3 out[3] out[4] 0
4 out[3] *169:A 0.000108647
5 out[2] out[3] 0
*RES
1 *171:X out[3] 5.86677 
*END

*D_NET *15 0.000420865
*CONN
*P out[4] O
*I *172:X O *D sky130_fd_sc_hd__buf_2
*CAP
1 out[4] 0.00020015
2 *172:X 0.00020015
3 out[4] out[5] 0
4 out[4] *169:A 2.05641e-05
5 out[3] out[4] 0
*RES
1 *172:X out[4] 4.84677 
*END

*D_NET *16 0.000603797
*CONN
*P out[5] O
*I *173:X O *D sky130_fd_sc_hd__buf_2
*CAP
1 out[5] 0.00025726
2 *173:X 0.00025726
3 out[5] out[6] 0
4 out[5] *159:B 1.52491e-05
5 out[5] *169:A 7.4027e-05
6 out[4] out[5] 0
*RES
1 *173:X out[5] 5.86677 
*END

*D_NET *17 0.000716532
*CONN
*P out[6] O
*I *174:X O *D sky130_fd_sc_hd__buf_2
*CAP
1 out[6] 0.000358266
2 *174:X 0.000358266
3 out[6] out[7] 0
4 out[5] out[6] 0
*RES
1 *174:X out[6] 5.19637 
*END

*D_NET *18 0.000971234
*CONN
*P out[7] O
*I *175:X O *D sky130_fd_sc_hd__clkbuf_4
*CAP
1 out[7] 0.000485617
2 *175:X 0.000485617
3 out[6] out[7] 0
*RES
1 *175:X out[7] 10.1435 
*END

*D_NET *19 0.00577268
*CONN
*I *159:A I *D sky130_fd_sc_hd__nor2_1
*I *144:B I *D sky130_fd_sc_hd__xnor2_1
*I *143:Y O *D sky130_fd_sc_hd__nor2_1
*CAP
1 *159:A 0.000643426
2 *144:B 0.00107304
3 *143:Y 0.000160531
4 *19:6 0.001877
5 *144:B *143:A 0
6 *144:B *144:A 0
7 *144:B *151:B 0
8 *144:B *153:B 0.000160651
9 *144:B *154:A2 0.00015829
10 *144:B *155:B 0.000570786
11 *144:B *37:14 0
12 *144:B *38:12 0
13 *144:B *39:12 7.45707e-05
14 *159:A *143:A 0.000236648
15 *159:A *143:B 2.30292e-05
16 *159:A *145:A2 0.00022257
17 *159:A *147:A_N 0.000138799
18 *159:A *147:B 5.5626e-05
19 *159:A *159:B 8.8266e-05
20 *19:6 *143:A 0.000269292
21 *19:6 *143:B 2.01565e-05
22 *162:A *144:B 0
*RES
1 *143:Y *19:6 4.465 
2 *19:6 *144:B 27.17 
3 *19:6 *159:A 13.105 
*END

*D_NET *20 0.000635211
*CONN
*I *147:A_N I *D sky130_fd_sc_hd__and2b_1
*I *145:X O *D sky130_fd_sc_hd__o31a_1
*CAP
1 *147:A_N 0.000135517
2 *145:X 0.000135517
3 *147:A_N *147:B 8.49205e-05
4 *147:A_N *148:A 7.4027e-05
5 *147:A_N *153:C 4.40812e-05
6 *147:A_N *174:A 2.23485e-05
7 *159:A *147:A_N 0.000138799
*RES
1 *145:X *147:A_N 10.755 
*END

*D_NET *21 0.00826643
*CONN
*I *150:B I *D sky130_fd_sc_hd__and2_1
*I *153:D I *D sky130_fd_sc_hd__or4_1
*I *149:B I *D sky130_fd_sc_hd__nor2_1
*I *147:B I *D sky130_fd_sc_hd__and2b_1
*I *154:A3 I *D sky130_fd_sc_hd__o31ai_1
*I *146:X O *D sky130_fd_sc_hd__or4_2
*CAP
1 *150:B 0.000532943
2 *153:D 8.72751e-05
3 *149:B 0.000261007
4 *147:B 0.000152068
5 *154:A3 0.000382092
6 *146:X 0.000178589
7 *21:53 0.000946044
8 *21:16 0.000581885
9 *21:14 0.000624553
10 *21:8 0.000820236
11 *147:B *145:A2 4.66108e-05
12 *149:B *145:A2 4.66108e-05
13 *149:B *149:A 0
14 *149:B *23:10 0.000179197
15 *150:B *148:A 0.000684726
16 *150:B *150:A 0.000204097
17 *150:B *153:C 7.21296e-06
18 *150:B *29:16 0
19 *150:B *29:22 0
20 *150:B *38:8 0.000421919
21 *153:D *153:B 8.65961e-05
22 *153:D *175:A 6.52265e-05
23 *153:D *40:44 8.65961e-05
24 *154:A3 *145:A2 2.92496e-05
25 *154:A3 *153:C 0.000291467
26 *154:A3 *154:A1 0.000201872
27 *154:A3 *154:A2 6.8202e-05
28 *154:A3 *174:A 0
29 *21:8 *145:B1 0.000276441
30 *21:14 *145:A2 3.09233e-05
31 *21:14 *145:B1 0.000469613
32 *21:14 *153:C 1.40205e-05
33 *21:14 *154:A1 0
34 *21:14 *40:10 0
35 *21:16 *145:A2 9.37731e-05
36 *21:16 *154:A1 0
37 *21:53 *145:A3 2.42236e-05
38 *21:53 *145:B1 2.92496e-05
39 *21:53 *153:C 0.000201362
40 *21:53 *29:22 0
41 *21:53 *40:44 0
42 *147:A_N *147:B 8.49205e-05
43 *159:A *147:B 5.5626e-05
*RES
1 *146:X *21:8 6.12 
2 *21:8 *21:14 6.78 
3 *21:14 *21:16 1.125 
4 *21:16 *154:A3 11.88 
5 *21:16 *147:B 6.12 
6 *21:14 *149:B 7.545 
7 *21:8 *21:53 6.735 
8 *21:53 *153:D 5.79 
9 *21:53 *150:B 16.005 
*END

*D_NET *22 0.00503749
*CONN
*I *148:A I *D sky130_fd_sc_hd__clkbuf_1
*I *147:X O *D sky130_fd_sc_hd__and2b_1
*CAP
1 *148:A 0.0010206
2 *147:X 0.0010206
3 *148:A *150:A 0.000758771
4 *148:A *153:C 0
5 *148:A *171:A 0.000111285
6 *148:A *174:A 0.0013153
7 *148:A *176:A 5.21714e-05
8 *147:A_N *148:A 7.4027e-05
9 *150:B *148:A 0.000684726
*RES
1 *147:X *148:A 33.885 
*END

*D_NET *23 0.00371943
*CONN
*I *152:B I *D sky130_fd_sc_hd__xnor2_1
*I *151:A I *D sky130_fd_sc_hd__nor2_1
*I *149:Y O *D sky130_fd_sc_hd__nor2_1
*CAP
1 *152:B 0.000258949
2 *151:A 0
3 *149:Y 0.00068154
4 *23:10 0.000940489
5 *152:B *157:A 0.000532697
6 *23:10 *145:A1 0.000455598
7 *23:10 *145:A2 4.66108e-05
8 *23:10 *149:A 0.000102611
9 *23:10 *154:A2 0.000131666
10 *23:10 *157:A 0.000390073
11 *149:B *23:10 0.000179197
*RES
1 *149:Y *23:10 18.495 
2 *23:10 *151:A 3.6 
3 *23:10 *152:B 9.825 
*END

*D_NET *24 0.00227634
*CONN
*I *151:B I *D sky130_fd_sc_hd__nor2_1
*I *150:X O *D sky130_fd_sc_hd__and2_1
*CAP
1 *151:B 0.000384666
2 *150:X 0.000384666
3 *151:B *155:A 0.000187766
4 *151:B *155:B 0
5 *151:B *157:A 0.000719768
6 *151:B *38:8 1.4399e-05
7 *151:B *41:12 0.000519808
8 *144:B *151:B 0
9 *163:A *151:B 6.5265e-05
*RES
1 *150:X *151:B 19.485 
*END

*D_NET *25 0.00245451
*CONN
*I *157:B I *D sky130_fd_sc_hd__xor2_1
*I *155:A I *D sky130_fd_sc_hd__and2_1
*I *153:X O *D sky130_fd_sc_hd__or4_1
*CAP
1 *157:B 0
2 *155:A 0.000161301
3 *153:X 0.000630737
4 *25:8 0.000792037
5 *25:8 *153:B 0.000605185
6 *25:8 *175:A 4.17195e-05
7 *151:B *155:A 0.000187766
8 *163:A *155:A 3.57702e-05
*RES
1 *153:X *25:8 9.91 
2 *25:8 *155:A 8.885 
3 *25:8 *157:B 1.6 
*END

*D_NET *26 0.00311904
*CONN
*I *155:B I *D sky130_fd_sc_hd__and2_1
*I *154:Y O *D sky130_fd_sc_hd__o31ai_1
*CAP
1 *155:B 0.000997208
2 *154:Y 0.000997208
3 *155:B *153:B 0.000156474
4 *155:B *154:A2 0.000237055
5 *155:B *156:A 0.00016031
6 *155:B *157:A 0
7 *144:B *155:B 0.000570786
8 *151:B *155:B 0
*RES
1 *154:Y *155:B 27.18 
*END

*D_NET *27 0.00070487
*CONN
*I *156:A I *D sky130_fd_sc_hd__clkbuf_1
*I *155:X O *D sky130_fd_sc_hd__and2_1
*CAP
1 *156:A 0.00027228
2 *155:X 0.00027228
3 *155:B *156:A 0.00016031
*RES
1 *155:X *156:A 7.445 
*END

*D_NET *28 0.00424638
*CONN
*I *159:B I *D sky130_fd_sc_hd__nor2_1
*I *158:X O *D sky130_fd_sc_hd__and2_1
*CAP
1 *159:B 0.00114038
2 *158:X 0.00114038
3 *159:B *158:A 6.03315e-05
4 *159:B *158:B 1.19928e-05
5 *159:B *169:A 7.53115e-05
6 *159:B *173:A 0.000655925
7 *159:B *175:A 0.000856573
8 *159:B *29:22 4.29107e-05
9 *159:B *39:12 0.000159054
10 out[5] *159:B 1.52491e-05
11 *159:A *159:B 8.8266e-05
*RES
1 *158:X *159:B 27.9 
*END

*D_NET *29 0.00817431
*CONN
*I *160:A I *D sky130_fd_sc_hd__clkbuf_1
*I *146:B I *D sky130_fd_sc_hd__or4_2
*I *145:A2 I *D sky130_fd_sc_hd__o31a_1
*I *143:B I *D sky130_fd_sc_hd__nor2_1
*I *158:B I *D sky130_fd_sc_hd__and2_1
*I *161:X O *D sky130_fd_sc_hd__dlymetal6s2s_1
*CAP
1 *160:A 0
2 *146:B 3.98087e-05
3 *145:A2 0.000220823
4 *143:B 0.000299021
5 *158:B 0.000179699
6 *161:X 0.000718338
7 *29:37 0.000707307
8 *29:33 0.000270865
9 *29:22 0.00060134
10 *29:16 0.00109639
11 *143:B *143:A 0.000493389
12 *145:A2 *153:C 0.00013521
13 *146:B *145:A3 2.49909e-05
14 *158:B *158:A 0.000343344
15 *29:16 *144:A 6.54847e-05
16 *29:16 *170:A 0.000236729
17 *29:16 *37:10 1.83847e-05
18 *29:22 *37:10 0
19 *29:22 *40:44 0.000198188
20 *29:33 *37:10 2.92496e-05
21 *29:33 *37:12 0.00010596
22 *29:33 *40:44 0.000137571
23 *29:37 *143:A 0.000183738
24 *29:37 *154:A1 0.00022921
25 *29:37 *37:12 7.47215e-05
26 *29:37 *37:14 0.000517461
27 *29:37 *40:10 0.000355823
28 *29:37 *40:44 0.000172852
29 *147:B *145:A2 4.66108e-05
30 *149:B *145:A2 4.66108e-05
31 *150:B *29:16 0
32 *150:B *29:22 0
33 *154:A3 *145:A2 2.92496e-05
34 *159:A *143:B 2.30292e-05
35 *159:A *145:A2 0.00022257
36 *159:B *158:B 1.19928e-05
37 *159:B *29:22 4.29107e-05
38 *162:A *29:16 0.000103976
39 *19:6 *143:B 2.01565e-05
40 *21:14 *145:A2 3.09233e-05
41 *21:16 *145:A2 9.37731e-05
42 *21:53 *29:22 0
43 *23:10 *145:A2 4.66108e-05
*RES
1 *161:X *29:16 15.525 
2 *29:16 *29:22 9.11 
3 *29:22 *158:B 5.155 
4 *29:22 *29:33 3.635 
5 *29:33 *29:37 10.775 
6 *29:37 *143:B 7.585 
7 *29:37 *145:A2 11.24 
8 *29:33 *146:B 4.05 
9 *29:16 *160:A 3.6 
*END

*D_NET *30 0.00327762
*CONN
*I *169:A I *D sky130_fd_sc_hd__buf_2
*I *159:Y O *D sky130_fd_sc_hd__nor2_1
*CAP
1 *169:A 0.000775682
2 *159:Y 0.000775682
3 *169:A *170:A 0.000373512
4 *169:A *171:A 0.0002025
5 *169:A *173:A 0.000835847
6 *169:A *175:A 1.52862e-05
7 out[2] *169:A 2.05641e-05
8 out[3] *169:A 0.000108647
9 out[4] *169:A 2.05641e-05
10 out[5] *169:A 7.4027e-05
11 *159:B *169:A 7.53115e-05
*RES
1 *159:Y *169:A 27.39 
*END

*D_NET *31 0.00227907
*CONN
*I *170:A I *D sky130_fd_sc_hd__buf_2
*I *144:Y O *D sky130_fd_sc_hd__xnor2_1
*CAP
1 *170:A 0.000746886
2 *144:Y 0.000746886
3 *170:A *171:A 0.000164679
4 *170:A *176:A 0
5 out[1] *170:A 1.03755e-05
6 *169:A *170:A 0.000373512
7 *29:16 *170:A 0.000236729
*RES
1 *144:Y *170:A 20.625 
*END

*D_NET *32 0.00306681
*CONN
*I *171:A I *D sky130_fd_sc_hd__buf_2
*I *148:X O *D sky130_fd_sc_hd__clkbuf_1
*CAP
1 *171:A 0.000803883
2 *148:X 0.000803883
3 *171:A *150:A 0.000684362
4 *171:A *173:A 2.75145e-05
5 *171:A *174:A 0
6 *171:A *175:A 0.000233918
7 *171:A *176:A 3.47837e-05
8 *148:A *171:A 0.000111285
9 *169:A *171:A 0.0002025
10 *170:A *171:A 0.000164679
*RES
1 *148:X *171:A 23.73 
*END

*D_NET *33 0.00198861
*CONN
*I *172:A I *D sky130_fd_sc_hd__buf_2
*I *151:Y O *D sky130_fd_sc_hd__nor2_1
*CAP
1 *172:A 0.000879363
2 *151:Y 0.000879363
3 *172:A *40:8 0.000229886
*RES
1 *151:Y *172:A 16.43 
*END

*D_NET *34 0.0042674
*CONN
*I *173:A I *D sky130_fd_sc_hd__buf_2
*I *152:Y O *D sky130_fd_sc_hd__xnor2_1
*CAP
1 *173:A 0.00128902
2 *152:Y 0.00128902
3 *173:A *153:B 7.05395e-05
4 *173:A *175:A 9.95272e-05
5 *159:B *173:A 0.000655925
6 *169:A *173:A 0.000835847
7 *171:A *173:A 2.75145e-05
*RES
1 *152:Y *173:A 28.23 
*END

*D_NET *35 0.00421918
*CONN
*I *174:A I *D sky130_fd_sc_hd__buf_2
*I *156:X O *D sky130_fd_sc_hd__clkbuf_1
*CAP
1 *174:A 0.00141563
2 *156:X 0.00141563
3 *174:A *153:C 0
4 *174:A *175:A 0
5 *174:A *176:A 5.02706e-05
6 *147:A_N *174:A 2.23485e-05
7 *148:A *174:A 0.0013153
8 *154:A3 *174:A 0
9 *171:A *174:A 0
*RES
1 *156:X *174:A 32.475 
*END

*D_NET *36 0.00503048
*CONN
*I *175:A I *D sky130_fd_sc_hd__clkbuf_4
*I *157:X O *D sky130_fd_sc_hd__xor2_1
*CAP
1 *175:A 0.0016226
2 *157:X 0.0016226
3 *175:A *153:B 0.000125115
4 *175:A *40:44 0.000347922
5 *153:D *175:A 6.52265e-05
6 *159:B *175:A 0.000856573
7 *169:A *175:A 1.52862e-05
8 *171:A *175:A 0.000233918
9 *173:A *175:A 9.95272e-05
10 *174:A *175:A 0
11 *25:8 *175:A 4.17195e-05
*RES
1 *157:X *175:A 38.295 
*END

*D_NET *37 0.00688855
*CONN
*I *158:A I *D sky130_fd_sc_hd__and2_1
*I *146:A I *D sky130_fd_sc_hd__or4_2
*I *145:A1 I *D sky130_fd_sc_hd__o31a_1
*I *143:A I *D sky130_fd_sc_hd__nor2_1
*I *162:X O *D sky130_fd_sc_hd__buf_1
*CAP
1 *158:A 0.00010274
2 *146:A 0
3 *145:A1 0.000146039
4 *143:A 0.000194518
5 *162:X 0.000392747
6 *37:14 0.000579049
7 *37:12 0.000289933
8 *37:10 0.000546926
9 *143:A *154:A1 1.07797e-05
10 *145:A1 *149:A 0.000324451
11 *158:A *39:12 0.000307609
12 *37:10 *144:A 7.06865e-05
13 *37:10 *38:12 0.000762975
14 *37:10 *40:44 0.000195625
15 *37:12 *38:12 0.000160658
16 *37:12 *39:12 5.14321e-06
17 *37:14 *39:12 1.0555e-05
18 *143:B *143:A 0.000493389
19 *144:B *143:A 0
20 *144:B *37:14 0
21 *158:B *158:A 0.000343344
22 *159:A *143:A 0.000236648
23 *159:B *158:A 6.03315e-05
24 *19:6 *143:A 0.000269292
25 *23:10 *145:A1 0.000455598
26 *29:16 *37:10 1.83847e-05
27 *29:22 *37:10 0
28 *29:33 *37:10 2.92496e-05
29 *29:33 *37:12 0.00010596
30 *29:37 *143:A 0.000183738
31 *29:37 *37:12 7.47215e-05
32 *29:37 *37:14 0.000517461
*RES
1 *162:X *37:10 13.845 
2 *37:10 *37:12 2.145 
3 *37:12 *37:14 5.97 
4 *37:14 *143:A 10.59 
5 *37:14 *145:A1 9.12 
6 *37:12 *146:A 3.6 
7 *37:10 *158:A 7.5 
*END

*D_NET *38 0.00576399
*CONN
*I *144:A I *D sky130_fd_sc_hd__xnor2_1
*I *145:A3 I *D sky130_fd_sc_hd__o31a_1
*I *146:C I *D sky130_fd_sc_hd__or4_2
*I *163:X O *D sky130_fd_sc_hd__buf_1
*CAP
1 *144:A 0.000228124
2 *145:A3 0.000351763
3 *146:C 0
4 *163:X 0.000402637
5 *38:12 0.000804193
6 *38:8 0.00108319
7 *145:A3 *145:B1 0.000736704
8 *145:A3 *153:C 0.000540526
9 *38:12 *39:12 7.15106e-05
10 *144:B *144:A 0
11 *144:B *38:12 0
12 *146:B *145:A3 2.49909e-05
13 *150:B *38:8 0.000421919
14 *151:B *38:8 1.4399e-05
15 *21:53 *145:A3 2.42236e-05
16 *29:16 *144:A 6.54847e-05
17 *37:10 *144:A 7.06865e-05
18 *37:10 *38:12 0.000762975
19 *37:12 *38:12 0.000160658
*RES
1 *163:X *38:8 8.88 
2 *38:8 *38:12 12.815 
3 *38:12 *146:C 1.6 
4 *38:12 *145:A3 16.07 
5 *38:8 *144:A 6.915 
*END

*D_NET *39 0.00345464
*CONN
*I *145:B1 I *D sky130_fd_sc_hd__o31a_1
*I *146:D I *D sky130_fd_sc_hd__or4_2
*I *164:X O *D sky130_fd_sc_hd__clkbuf_1
*CAP
1 *145:B1 0.00032249
2 *146:D 0
3 *164:X 0.000334603
4 *39:12 0.000657093
5 *144:B *39:12 7.45707e-05
6 *145:A3 *145:B1 0.000736704
7 *158:A *39:12 0.000307609
8 *159:B *39:12 0.000159054
9 *21:8 *145:B1 0.000276441
10 *21:14 *145:B1 0.000469613
11 *21:53 *145:B1 2.92496e-05
12 *37:12 *39:12 5.14321e-06
13 *37:14 *39:12 1.0555e-05
14 *38:12 *39:12 7.15106e-05
*RES
1 *164:X *39:12 12.335 
2 *39:12 *146:D 1.6 
3 *39:12 *145:B1 15.905 
*END

*D_NET *40 0.00872425
*CONN
*I *153:A I *D sky130_fd_sc_hd__or4_1
*I *150:A I *D sky130_fd_sc_hd__and2_1
*I *149:A I *D sky130_fd_sc_hd__nor2_1
*I *154:A1 I *D sky130_fd_sc_hd__o31ai_1
*I *165:X O *D sky130_fd_sc_hd__buf_1
*CAP
1 *153:A 0
2 *150:A 0.00035567
3 *149:A 0.000377984
4 *154:A1 0.000274069
5 *165:X 0.000529412
6 *40:44 0.000709546
7 *40:10 0.000821751
8 *40:8 0.00105299
9 *150:A *153:C 8.53113e-06
10 *154:A1 *153:C 0.000200197
11 *154:A1 *154:A2 0
12 *40:44 *153:B 0.000153482
13 *143:A *154:A1 1.07797e-05
14 *145:A1 *149:A 0.000324451
15 *148:A *150:A 0.000758771
16 *149:B *149:A 0
17 *150:B *150:A 0.000204097
18 *153:D *40:44 8.65961e-05
19 *154:A3 *154:A1 0.000201872
20 *171:A *150:A 0.000684362
21 *172:A *40:8 0.000229886
22 *175:A *40:44 0.000347922
23 *21:14 *154:A1 0
24 *21:14 *40:10 0
25 *21:16 *154:A1 0
26 *21:53 *40:44 0
27 *23:10 *149:A 0.000102611
28 *29:22 *40:44 0.000198188
29 *29:33 *40:44 0.000137571
30 *29:37 *154:A1 0.00022921
31 *29:37 *40:10 0.000355823
32 *29:37 *40:44 0.000172852
33 *37:10 *40:44 0.000195625
*RES
1 *165:X *40:8 9.915 
2 *40:8 *40:10 4.185 
3 *40:10 *154:A1 10.125 
4 *40:10 *149:A 9.465 
5 *40:8 *40:44 12.965 
6 *40:44 *150:A 16.88 
7 *40:44 *153:A 1.6 
*END

*D_NET *41 0.00556198
*CONN
*I *154:A2 I *D sky130_fd_sc_hd__o31ai_1
*I *153:B I *D sky130_fd_sc_hd__or4_1
*I *152:A I *D sky130_fd_sc_hd__xnor2_1
*I *166:X O *D sky130_fd_sc_hd__buf_1
*CAP
1 *154:A2 0.000447707
2 *153:B 0.000403607
3 *152:A 0
4 *166:X 0
5 *41:12 0.000922927
6 *41:4 0.000967026
7 *154:A2 *153:C 0.000104836
8 *154:A2 *157:A 0
9 *41:12 *157:A 0.000242808
10 *144:B *153:B 0.000160651
11 *144:B *154:A2 0.00015829
12 *151:B *41:12 0.000519808
13 *153:D *153:B 8.65961e-05
14 *154:A1 *154:A2 0
15 *154:A3 *154:A2 6.8202e-05
16 *155:B *153:B 0.000156474
17 *155:B *154:A2 0.000237055
18 *165:A *41:12 0
19 *166:A *41:12 0
20 *173:A *153:B 7.05395e-05
21 *175:A *153:B 0.000125115
22 *23:10 *154:A2 0.000131666
23 *25:8 *153:B 0.000605185
24 *40:44 *153:B 0.000153482
*RES
1 *166:X *41:4 1.6 
2 *41:4 *41:12 15.61 
3 *41:12 *152:A 1.6 
4 *41:12 *153:B 16.685 
5 *41:4 *154:A2 13.1975 
*END

*D_NET *42 0.00452222
*CONN
*I *153:C I *D sky130_fd_sc_hd__or4_1
*I *154:B1 I *D sky130_fd_sc_hd__o31ai_1
*I *167:X O *D sky130_fd_sc_hd__buf_1
*CAP
1 *153:C 0.0011634
2 *154:B1 0
3 *167:X 0.000284499
4 *42:12 0.0014479
5 *42:12 *157:A 7.89689e-05
6 *145:A2 *153:C 0.00013521
7 *145:A3 *153:C 0.000540526
8 *147:A_N *153:C 4.40812e-05
9 *148:A *153:C 0
10 *150:A *153:C 8.53113e-06
11 *150:B *153:C 7.21296e-06
12 *154:A1 *153:C 0.000200197
13 *154:A2 *153:C 0.000104836
14 *154:A3 *153:C 0.000291467
15 *174:A *153:C 0
16 *21:14 *153:C 1.40205e-05
17 *21:53 *153:C 0.000201362
*RES
1 *167:X *42:12 10.1 
2 *42:12 *154:B1 1.6 
3 *42:12 *153:C 29.135 
*END

*D_NET *43 0.00327956
*CONN
*I *157:A I *D sky130_fd_sc_hd__xor2_1
*I *168:X O *D sky130_fd_sc_hd__clkbuf_1
*CAP
1 *157:A 0.000657621
2 *168:X 0.000657621
3 *151:B *157:A 0.000719768
4 *152:B *157:A 0.000532697
5 *154:A2 *157:A 0
6 *155:B *157:A 0
7 *166:A *157:A 0
8 *23:10 *157:A 0.000390073
9 *41:12 *157:A 0.000242808
10 *42:12 *157:A 7.89689e-05
*RES
1 *168:X *157:A 25.605 
*END

*D_NET *44 0.00132745
*CONN
*I *176:A I *D sky130_fd_sc_hd__buf_2
*I *160:X O *D sky130_fd_sc_hd__clkbuf_1
*CAP
1 *176:A 0.000595111
2 *160:X 0.000595111
3 *148:A *176:A 5.21714e-05
4 *170:A *176:A 0
5 *171:A *176:A 3.47837e-05
6 *174:A *176:A 5.02706e-05
*RES
1 *160:X *176:A 15.21 
*END
