*SPEF "ieee 1481-1999"
*DESIGN "twos_complement"
*DATE "23:37:57 Thursday April 24, 2025"
*VENDOR "The OpenROAD Project"
*PROGRAM "OpenROAD"
*VERSION "b16bda7e82721d10566ff7e2b68f1ff0be9f9e38"
*DESIGN_FLOW "NAME_SCOPE LOCAL" "PIN_CAP NONE"
*DIVIDER /
*DELIMITER :
*BUS_DELIMITER []
*T_UNIT 1 NS
*C_UNIT 1 PF
*R_UNIT 1 OHM
*L_UNIT 1 HENRY

*NAME_MAP
*3 in[0]
*4 in[1]
*5 in[2]
*6 in[3]
*7 in[4]
*8 in[5]
*9 in[6]
*10 in[7]
*11 out[0]
*12 out[1]
*13 out[2]
*14 out[3]
*15 out[4]
*16 out[5]
*17 out[6]
*18 out[7]
*19 _00_
*20 _01_
*21 _02_
*22 _03_
*23 _04_
*24 _05_
*25 _06_
*26 _07_
*27 _08_
*28 _09_
*29 net1
*30 net10
*31 net11
*32 net12
*33 net13
*34 net14
*35 net15
*36 net16
*37 net2
*38 net3
*39 net4
*40 net5
*41 net6
*42 net7
*43 net8
*44 net9
*45 FILLER_0_0_21
*46 FILLER_0_0_27
*47 FILLER_0_0_29
*48 FILLER_0_0_37
*49 FILLER_0_0_9
*50 FILLER_0_10_10
*51 FILLER_0_10_18
*52 FILLER_0_10_24
*53 FILLER_0_10_29
*54 FILLER_0_10_3
*55 FILLER_0_10_41
*56 FILLER_0_11_15
*57 FILLER_0_11_27
*58 FILLER_0_11_39
*59 FILLER_0_11_47
*60 FILLER_0_11_6
*61 FILLER_0_12_23
*62 FILLER_0_12_27
*63 FILLER_0_12_29
*64 FILLER_0_12_37
*65 FILLER_0_1_11
*66 FILLER_0_1_19
*67 FILLER_0_1_3
*68 FILLER_0_1_31
*69 FILLER_0_1_43
*70 FILLER_0_1_47
*71 FILLER_0_2_21
*72 FILLER_0_2_27
*73 FILLER_0_2_29
*74 FILLER_0_2_3
*75 FILLER_0_2_43
*76 FILLER_0_2_9
*77 FILLER_0_3_18
*78 FILLER_0_3_40
*79 FILLER_0_3_6
*80 FILLER_0_4_15
*81 FILLER_0_4_27
*82 FILLER_0_4_29
*83 FILLER_0_4_3
*84 FILLER_0_4_41
*85 FILLER_0_4_47
*86 FILLER_0_5_21
*87 FILLER_0_5_33
*88 FILLER_0_5_41
*89 FILLER_0_5_9
*90 FILLER_0_6_15
*91 FILLER_0_6_25
*92 FILLER_0_6_29
*93 FILLER_0_6_3
*94 FILLER_0_6_41
*95 FILLER_0_6_47
*96 FILLER_0_7_15
*97 FILLER_0_7_27
*98 FILLER_0_7_39
*99 FILLER_0_7_47
*100 FILLER_0_7_6
*101 FILLER_0_8_12
*102 FILLER_0_8_24
*103 FILLER_0_8_29
*104 FILLER_0_8_3
*105 FILLER_0_8_41
*106 FILLER_0_9_12
*107 FILLER_0_9_24
*108 FILLER_0_9_3
*109 FILLER_0_9_36
*110 PHY_EDGE_ROW_0_Left_13
*111 PHY_EDGE_ROW_0_Right_0
*112 PHY_EDGE_ROW_10_Left_23
*113 PHY_EDGE_ROW_10_Right_10
*114 PHY_EDGE_ROW_11_Left_24
*115 PHY_EDGE_ROW_11_Right_11
*116 PHY_EDGE_ROW_12_Left_25
*117 PHY_EDGE_ROW_12_Right_12
*118 PHY_EDGE_ROW_1_Left_14
*119 PHY_EDGE_ROW_1_Right_1
*120 PHY_EDGE_ROW_2_Left_15
*121 PHY_EDGE_ROW_2_Right_2
*122 PHY_EDGE_ROW_3_Left_16
*123 PHY_EDGE_ROW_3_Right_3
*124 PHY_EDGE_ROW_4_Left_17
*125 PHY_EDGE_ROW_4_Right_4
*126 PHY_EDGE_ROW_5_Left_18
*127 PHY_EDGE_ROW_5_Right_5
*128 PHY_EDGE_ROW_6_Left_19
*129 PHY_EDGE_ROW_6_Right_6
*130 PHY_EDGE_ROW_7_Left_20
*131 PHY_EDGE_ROW_7_Right_7
*132 PHY_EDGE_ROW_8_Left_21
*133 PHY_EDGE_ROW_8_Right_8
*134 PHY_EDGE_ROW_9_Left_22
*135 PHY_EDGE_ROW_9_Right_9
*136 TAP_TAPCELL_ROW_0_26
*137 TAP_TAPCELL_ROW_10_31
*138 TAP_TAPCELL_ROW_12_32
*139 TAP_TAPCELL_ROW_2_27
*140 TAP_TAPCELL_ROW_4_28
*141 TAP_TAPCELL_ROW_6_29
*142 TAP_TAPCELL_ROW_8_30
*143 _10_
*144 _11_
*145 _12_
*146 _13_
*147 _14_
*148 _15_
*149 _16_
*150 _17_
*151 _18_
*152 _19_
*153 _20_
*154 _21_
*155 _22_
*156 _23_
*157 _24_
*158 _25_
*159 _26_
*160 _27_
*161 input1
*162 input2
*163 input3
*164 input4
*165 input5
*166 input6
*167 input7
*168 input8
*169 output10
*170 output11
*171 output12
*172 output13
*173 output14
*174 output15
*175 output16
*176 output9

*PORTS
in[0] I
in[1] I
in[2] I
in[3] I
in[4] I
in[5] I
in[6] I
in[7] I
out[0] O
out[1] O
out[2] O
out[3] O
out[4] O
out[5] O
out[6] O
out[7] O

*D_NET *3 0.00113747
*CONN
*P in[0] I
*I *161:A I *D sky130_fd_sc_hd__dlymetal6s2s_1
*CAP
1 in[0] 0.000568733
2 *161:A 0
3 *3:11 0.000568733
4 *3:11 *162:A 0
*RES
1 in[0] *3:11 31.1218 
2 *3:11 *161:A 23 
*END

*D_NET *4 0.00200468
*CONN
*P in[1] I
*I *162:A I *D sky130_fd_sc_hd__buf_1
*CAP
1 in[1] 0.00094072
2 *162:A 0.00094072
3 *162:A *5:11 0
4 *162:A *19:14 0
5 *162:A *29:14 0.000123241
6 *162:A *29:16 0
7 *3:11 *162:A 0
*RES
1 in[1] *162:A 48.8908 
*END

*D_NET *5 0.000897804
*CONN
*P in[2] I
*I *163:A I *D sky130_fd_sc_hd__buf_1
*CAP
1 in[2] 0.000397354
2 *163:A 0
3 *5:11 0.000397354
4 *5:11 *6:17 0
5 *5:11 *24:12 6.46393e-05
6 *5:11 *25:16 3.84556e-05
7 *162:A *5:11 0
*RES
1 in[2] *5:11 27.9525 
2 *5:11 *163:A 23 
*END

*D_NET *6 0.000662058
*CONN
*P in[3] I
*I *164:A I *D sky130_fd_sc_hd__clkbuf_1
*CAP
1 in[3] 0.000331029
2 *164:A 0
3 *6:17 0.000331029
4 *6:17 *7:17 0
5 *5:11 *6:17 0
*RES
1 in[3] *6:17 27.1584 
2 *6:17 *164:A 23 
*END

*D_NET *7 0.000650175
*CONN
*P in[4] I
*I *165:A I *D sky130_fd_sc_hd__buf_1
*CAP
1 in[4] 0.000325087
2 *165:A 0
3 *7:17 0.000325087
4 *7:17 *8:17 0
5 *7:17 *41:12 0
6 *6:17 *7:17 0
*RES
1 in[4] *7:17 27.1584 
2 *7:17 *165:A 23 
*END

*D_NET *8 0.000761607
*CONN
*P in[5] I
*I *166:A I *D sky130_fd_sc_hd__buf_1
*CAP
1 in[5] 0.000380803
2 *166:A 0
3 *8:17 0.000380803
4 *8:17 *167:A 0
5 *8:17 *41:12 0
6 *8:17 *43:12 0
7 *7:17 *8:17 0
*RES
1 in[5] *8:17 28.567 
2 *8:17 *166:A 23 
*END

*D_NET *9 0.000603153
*CONN
*P in[6] I
*I *167:A I *D sky130_fd_sc_hd__buf_1
*CAP
1 in[6] 0.000301577
2 *167:A 0.000301577
3 *167:A *10:11 0
4 *8:17 *167:A 0
*RES
1 in[6] *167:A 49.8062 
*END

*D_NET *10 0.00130197
*CONN
*P in[7] I
*I *168:A I *D sky130_fd_sc_hd__clkbuf_1
*CAP
1 in[7] 0.000650983
2 *168:A 0
3 *10:11 0.000650983
4 *167:A *10:11 0
*RES
1 in[7] *10:11 32.0837 
2 *10:11 *168:A 23 
*END

*D_NET *11 0.00123536
*CONN
*P out[0] O
*I *176:X O *D sky130_fd_sc_hd__buf_2
*CAP
1 out[0] 0.00029892
2 *176:X 0.000318757
3 *11:8 0.000617678
4 out[0] out[1] 0
*RES
1 *176:X *11:8 44.6596 
2 *11:8 out[0] 9.10133 
*END

*D_NET *12 0.000470126
*CONN
*P out[1] O
*I *169:X O *D sky130_fd_sc_hd__buf_2
*CAP
1 out[1] 0.000229574
2 *169:X 0.000229574
3 out[1] out[2] 0
4 out[1] *31:12 1.09783e-05
5 out[0] out[1] 0
*RES
1 *169:X out[1] 47.0789 
*END

*D_NET *13 0.000477704
*CONN
*P out[2] O
*I *170:X O *D sky130_fd_sc_hd__buf_2
*CAP
1 out[2] 0.000226501
2 *170:X 0.000226501
3 out[2] out[3] 0
4 out[2] *30:12 2.47015e-05
5 out[1] out[2] 0
*RES
1 *170:X out[2] 47.0789 
*END

*D_NET *14 0.00069737
*CONN
*P out[3] O
*I *171:X O *D sky130_fd_sc_hd__buf_2
*CAP
1 out[3] 0.000283579
2 *171:X 0.000283579
3 out[3] out[4] 0
4 out[3] *30:12 0.000130212
5 out[2] out[3] 0
*RES
1 *171:X out[3] 48.4875 
*END

*D_NET *15 0.000477704
*CONN
*P out[4] O
*I *172:X O *D sky130_fd_sc_hd__buf_2
*CAP
1 out[4] 0.000226501
2 *172:X 0.000226501
3 out[4] out[5] 0
4 out[4] *30:12 2.47015e-05
5 out[3] out[4] 0
*RES
1 *172:X out[4] 47.0789 
*END

*D_NET *16 0.000697048
*CONN
*P out[5] O
*I *173:X O *D sky130_fd_sc_hd__buf_2
*CAP
1 out[5] 0.000296585
2 *173:X 0.000296585
3 out[5] out[6] 0
4 out[5] *28:14 1.53581e-05
5 out[5] *30:12 8.85189e-05
6 out[4] out[5] 0
*RES
1 *173:X out[5] 48.4875 
*END

*D_NET *17 0.000821076
*CONN
*P out[6] O
*I *174:X O *D sky130_fd_sc_hd__buf_2
*CAP
1 out[6] 0.000410538
2 *174:X 0.000410538
3 out[6] out[7] 0
4 out[5] out[6] 0
*RES
1 *174:X out[6] 47.5941 
*END

*D_NET *18 0.00110166
*CONN
*P out[7] O
*I *175:X O *D sky130_fd_sc_hd__clkbuf_4
*CAP
1 out[7] 0.000175108
2 *175:X 0.000375724
3 *18:8 0.000550832
4 out[6] out[7] 0
*RES
1 *175:X *18:8 45.7161 
2 *18:8 out[7] 8.672 
*END

*D_NET *19 0.00698122
*CONN
*I *159:A I *D sky130_fd_sc_hd__nor2_1
*I *144:B I *D sky130_fd_sc_hd__xnor2_1
*I *143:Y O *D sky130_fd_sc_hd__nor2_1
*CAP
1 *159:A 0.000764038
2 *144:B 0
3 *143:Y 0.00020191
4 *19:14 0.0014027
5 *19:6 0.00236864
6 *159:A *143:A 0.000276214
7 *159:A *143:B 2.4754e-05
8 *159:A *147:A_N 0.000148688
9 *159:A *147:B 5.98028e-05
10 *159:A *28:14 0.00010018
11 *159:A *29:56 0.000238626
12 *19:6 *143:A 0.000315092
13 *19:6 *143:B 2.18286e-05
14 *19:14 *143:A 0
15 *19:14 *144:A 0
16 *19:14 *24:12 0
17 *19:14 *26:14 0.000604679
18 *19:14 *37:14 0
19 *19:14 *38:12 0
20 *19:14 *39:10 7.30771e-05
21 *19:14 *41:29 0.000192077
22 *19:14 *41:44 0.000188916
23 *162:A *19:14 0
*RES
1 *143:Y *19:6 26.9564 
2 *19:6 *19:14 44.7871 
3 *19:14 *144:B 38 
4 *19:6 *159:A 38.8879 
*END

*D_NET *20 0.000779007
*CONN
*I *147:A_N I *D sky130_fd_sc_hd__and2b_1
*I *145:X O *D sky130_fd_sc_hd__o31a_1
*CAP
1 *147:A_N 0.000113278
2 *145:X 7.62742e-05
3 *20:8 0.000189553
4 *147:A_N *147:B 9.67842e-05
5 *20:8 *22:10 8.85189e-05
6 *20:8 *35:12 2.35393e-05
7 *20:8 *42:25 4.23714e-05
8 *159:A *147:A_N 0.000148688
*RES
1 *145:X *20:8 39.9057 
2 *20:8 *147:A_N 41.0036 
*END

*D_NET *21 0.0100557
*CONN
*I *150:B I *D sky130_fd_sc_hd__and2_1
*I *153:D I *D sky130_fd_sc_hd__or4_1
*I *149:B I *D sky130_fd_sc_hd__nor2_1
*I *147:B I *D sky130_fd_sc_hd__and2b_1
*I *154:A3 I *D sky130_fd_sc_hd__o31ai_1
*I *146:X O *D sky130_fd_sc_hd__or4_2
*CAP
1 *150:B 0
2 *153:D 0.000110933
3 *149:B 0.000329066
4 *147:B 0.000198041
5 *154:A3 0.000467926
6 *146:X 0.000211351
7 *21:72 0.000685802
8 *21:53 0.00123232
9 *21:16 0.000731696
10 *21:14 0.000819398
11 *21:8 0.00107154
12 *147:B *29:56 5.3304e-05
13 *149:B *149:A 0
14 *149:B *23:6 0.000200063
15 *149:B *29:56 5.3304e-05
16 *153:D *36:8 6.9805e-05
17 *153:D *40:44 9.84851e-05
18 *153:D *41:29 9.84851e-05
19 *154:A3 *154:A1 0.000232185
20 *154:A3 *29:56 3.47781e-05
21 *154:A3 *35:12 0
22 *154:A3 *41:44 7.95473e-05
23 *154:A3 *42:25 0.000313935
24 *21:8 *39:25 0.000314157
25 *21:14 *154:A1 0
26 *21:14 *29:56 3.70187e-05
27 *21:14 *39:25 0.000562267
28 *21:14 *40:10 0
29 *21:14 *42:25 1.39664e-05
30 *21:16 *154:A1 0
31 *21:16 *29:56 0.000111852
32 *21:53 *29:22 0
33 *21:53 *38:25 2.60152e-05
34 *21:53 *39:25 3.47781e-05
35 *21:53 *40:44 0
36 *21:53 *42:25 0.00019679
37 *21:72 *148:A 0.000789069
38 *21:72 *29:16 0
39 *21:72 *29:22 0
40 *21:72 *38:8 0.000495435
41 *21:72 *40:52 0.000219129
42 *21:72 *42:25 6.7177e-06
43 *147:A_N *147:B 9.67842e-05
44 *159:A *147:B 5.98028e-05
*RES
1 *146:X *21:8 41.48 
2 *21:8 *21:14 9.36286 
3 *21:14 *21:16 1.55357 
4 *21:16 *154:A3 49.4343 
5 *21:16 *147:B 41.48 
6 *21:14 *149:B 43.4479 
7 *21:8 *21:53 9.30071 
8 *21:53 *153:D 41.0243 
9 *21:53 *21:72 32.1307 
10 *21:72 *150:B 23 
*END

*D_NET *22 0.00614685
*CONN
*I *148:A I *D sky130_fd_sc_hd__clkbuf_1
*I *147:X O *D sky130_fd_sc_hd__and2b_1
*CAP
1 *148:A 0.000299358
2 *147:X 0
3 *22:10 0.00132493
4 *22:6 0.00102557
5 *148:A *32:6 0.000119313
6 *148:A *40:52 0.000873415
7 *22:10 *32:14 0
8 *22:10 *35:12 0.00157654
9 *22:10 *40:52 0
10 *22:10 *42:25 0
11 *22:10 *44:10 5.0135e-05
12 *20:8 *22:10 8.85189e-05
13 *21:72 *148:A 0.000789069
*RES
1 *147:X *22:6 38 
2 *22:6 *22:10 39.795 
3 *22:10 *148:A 35.0557 
*END

*D_NET *23 0.00449645
*CONN
*I *152:B I *D sky130_fd_sc_hd__xnor2_1
*I *151:A I *D sky130_fd_sc_hd__nor2_1
*I *149:Y O *D sky130_fd_sc_hd__nor2_1
*CAP
1 *152:B 0.00032534
2 *151:A 0
3 *149:Y 0.000633451
4 *23:10 0.000547452
5 *23:6 0.000855562
6 *152:B *43:12 0.00063869
7 *23:6 *145:A1 0.000514531
8 *23:6 *149:A 0.0001157
9 *23:6 *29:56 5.3304e-05
10 *23:6 *41:44 0.000144166
11 *23:10 *43:12 0.000468192
12 *149:B *23:6 0.000200063
*RES
1 *149:Y *23:6 37.4379 
2 *23:6 *23:10 21.1314 
3 *23:10 *151:A 38 
4 *23:10 *152:B 46.5964 
*END

*D_NET *24 0.00281558
*CONN
*I *151:B I *D sky130_fd_sc_hd__nor2_1
*I *150:X O *D sky130_fd_sc_hd__and2_1
*CAP
1 *151:B 0
2 *150:X 3.86589e-05
3 *24:12 0.000474054
4 *24:8 0.000512713
5 *24:8 *38:8 1.39431e-05
6 *24:12 *25:16 0.000225275
7 *24:12 *26:14 0
8 *24:12 *41:12 0.00062326
9 *24:12 *43:12 0.000863034
10 *5:11 *24:12 6.46393e-05
11 *19:14 *24:12 0
*RES
1 *150:X *24:8 38.6214 
2 *24:8 *24:12 31.3436 
3 *24:12 *151:B 23 
*END

*D_NET *25 0.00297122
*CONN
*I *157:B I *D sky130_fd_sc_hd__xor2_1
*I *155:A I *D sky130_fd_sc_hd__and2_1
*I *153:X O *D sky130_fd_sc_hd__or4_1
*CAP
1 *157:B 0
2 *155:A 0
3 *153:X 0.000775346
4 *25:16 0.000211074
5 *25:8 0.00098642
6 *25:8 *36:8 3.84159e-05
7 *25:8 *41:29 0.000696235
8 *5:11 *25:16 3.84556e-05
9 *24:12 *25:16 0.000225275
*RES
1 *153:X *25:8 34.4757 
2 *25:8 *25:16 34.5364 
3 *25:16 *155:A 23 
4 *25:8 *157:B 23 
*END

*D_NET *26 0.00379545
*CONN
*I *155:B I *D sky130_fd_sc_hd__and2_1
*I *154:Y O *D sky130_fd_sc_hd__o31ai_1
*CAP
1 *155:B 0
2 *154:Y 0
3 *26:14 0.00126096
4 *26:6 0.00126096
5 *26:14 *27:6 0.000188927
6 *26:14 *41:29 0.000191429
7 *26:14 *41:44 0.000288491
8 *26:14 *43:12 0
9 *19:14 *26:14 0.000604679
10 *24:12 *26:14 0
*RES
1 *154:Y *26:6 38 
2 *26:6 *26:14 42.5914 
3 *26:14 *155:B 23 
*END

*D_NET *27 0.000865563
*CONN
*I *156:A I *D sky130_fd_sc_hd__clkbuf_1
*I *155:X O *D sky130_fd_sc_hd__and2_1
*CAP
1 *156:A 0
2 *155:X 0.000338318
3 *27:6 0.000338318
4 *26:14 *27:6 0.000188927
*RES
1 *155:X *27:6 28.8621 
2 *27:6 *156:A 23 
*END

*D_NET *28 0.00518971
*CONN
*I *159:B I *D sky130_fd_sc_hd__nor2_1
*I *158:X O *D sky130_fd_sc_hd__and2_1
*CAP
1 *159:B 0
2 *158:X 0.00111157
3 *28:14 0.000323607
4 *28:6 0.00143518
5 *28:6 *158:A 6.52749e-05
6 *28:6 *158:B 1.21972e-05
7 *28:6 *29:22 4.56219e-05
8 *28:6 *39:10 0.000184741
9 *28:14 *30:12 8.15327e-05
10 *28:14 *34:12 0.000786872
11 *28:14 *36:12 0.00102757
12 out[5] *28:14 1.53581e-05
13 *159:A *28:14 0.00010018
*RES
1 *158:X *28:6 36.9614 
2 *28:6 *28:14 44.6243 
3 *28:14 *159:B 23 
*END

*D_NET *29 0.010083
*CONN
*I *160:A I *D sky130_fd_sc_hd__clkbuf_1
*I *146:B I *D sky130_fd_sc_hd__or4_2
*I *145:A2 I *D sky130_fd_sc_hd__o31a_1
*I *143:B I *D sky130_fd_sc_hd__nor2_1
*I *158:B I *D sky130_fd_sc_hd__and2_1
*I *161:X O *D sky130_fd_sc_hd__dlymetal6s2s_1
*CAP
1 *160:A 0
2 *146:B 5.43738e-05
3 *145:A2 0
4 *143:B 0.000371834
5 *158:B 0.000234183
6 *161:X 0.000511548
7 *29:56 0.000304045
8 *29:37 0.000958459
9 *29:33 0.000408555
10 *29:22 0.000805193
11 *29:16 0.000859604
12 *29:14 0.000871744
13 *143:B *143:A 0.000577168
14 *146:B *38:25 2.64616e-05
15 *158:B *158:A 0.000399442
16 *29:14 *144:A 6.41126e-05
17 *29:14 *31:6 0.000270398
18 *29:14 *37:8 1.94812e-05
19 *29:16 *37:10 0
20 *29:22 *37:10 0
21 *29:22 *40:44 0.000212702
22 *29:33 *37:10 3.47781e-05
23 *29:33 *37:12 0.000126343
24 *29:33 *40:44 0.000164282
25 *29:37 *143:A 0.000219882
26 *29:37 *154:A1 0.000274553
27 *29:37 *37:12 8.94487e-05
28 *29:37 *37:14 0.000620117
29 *29:37 *40:10 0.00042672
30 *29:37 *40:44 0.000206587
31 *29:56 *42:25 0.000161121
32 *147:B *29:56 5.3304e-05
33 *149:B *29:56 5.3304e-05
34 *154:A3 *29:56 3.47781e-05
35 *159:A *143:B 2.4754e-05
36 *159:A *29:56 0.000238626
37 *162:A *29:14 0.000123241
38 *162:A *29:16 0
39 *19:6 *143:B 2.18286e-05
40 *21:14 *29:56 3.70187e-05
41 *21:16 *29:56 0.000111852
42 *21:53 *29:22 0
43 *21:72 *29:16 0
44 *21:72 *29:22 0
45 *23:6 *29:56 5.3304e-05
46 *28:6 *158:B 1.21972e-05
47 *28:6 *29:22 4.56219e-05
*RES
1 *161:X *29:14 48.3364 
2 *29:14 *29:16 6.13143 
3 *29:16 *29:22 24.8186 
4 *29:22 *158:B 27.9093 
5 *29:22 *29:33 17.2579 
6 *29:33 *29:37 27.1179 
7 *29:37 *143:B 31.265 
8 *29:37 *29:56 37.7886 
9 *29:56 *145:A2 23 
10 *29:33 *146:B 38.6214 
11 *29:16 *160:A 38 
*END

*D_NET *30 0.00399327
*CONN
*I *169:A I *D sky130_fd_sc_hd__buf_2
*I *159:Y O *D sky130_fd_sc_hd__nor2_1
*CAP
1 *169:A 0
2 *159:Y 0
3 *30:12 0.000979163
4 *30:6 0.000979163
5 *30:12 *31:6 6.17437e-06
6 *30:12 *31:12 0.000441317
7 *30:12 *32:14 0.000219625
8 *30:12 *34:12 0.00100292
9 *30:12 *36:12 1.52362e-05
10 out[2] *30:12 2.47015e-05
11 out[3] *30:12 0.000130212
12 out[4] *30:12 2.47015e-05
13 out[5] *30:12 8.85189e-05
14 *28:14 *30:12 8.15327e-05
*RES
1 *159:Y *30:6 38 
2 *30:6 *30:12 42.8814 
3 *30:12 *169:A 23 
*END

*D_NET *31 0.0026821
*CONN
*I *170:A I *D sky130_fd_sc_hd__buf_2
*I *144:Y O *D sky130_fd_sc_hd__xnor2_1
*CAP
1 *170:A 0
2 *144:Y 0.000678855
3 *31:12 0.000199025
4 *31:6 0.00087788
5 *31:12 *32:14 0.00019747
6 *31:12 *44:10 0
7 out[1] *31:12 1.09783e-05
8 *29:14 *31:6 0.000270398
9 *30:12 *31:6 6.17437e-06
10 *30:12 *31:12 0.000441317
*RES
1 *144:Y *31:6 35.0557 
2 *31:6 *31:12 36.4836 
3 *31:12 *170:A 23 
*END

*D_NET *32 0.00367979
*CONN
*I *171:A I *D sky130_fd_sc_hd__buf_2
*I *148:X O *D sky130_fd_sc_hd__clkbuf_1
*CAP
1 *171:A 0
2 *148:X 0.000723632
3 *32:14 0.000283465
4 *32:6 0.0010071
5 *32:6 *40:52 0.000785792
6 *32:14 *34:6 2.93747e-05
7 *32:14 *35:12 0
8 *32:14 *36:12 0.000280856
9 *32:14 *44:10 3.31683e-05
10 *148:A *32:6 0.000119313
11 *22:10 *32:14 0
12 *30:12 *32:14 0.000219625
13 *31:12 *32:14 0.00019747
*RES
1 *148:X *32:6 36.9614 
2 *32:6 *32:14 38.8657 
3 *32:14 *171:A 23 
*END

*D_NET *33 0.00247817
*CONN
*I *172:A I *D sky130_fd_sc_hd__buf_2
*I *151:Y O *D sky130_fd_sc_hd__nor2_1
*CAP
1 *172:A 0
2 *151:Y 0.00111933
3 *33:8 0.00111933
4 *33:8 *40:8 0.000239507
*RES
1 *151:Y *33:8 41.27 
2 *33:8 *172:A 23 
*END

*D_NET *34 0.00525346
*CONN
*I *173:A I *D sky130_fd_sc_hd__buf_2
*I *152:Y O *D sky130_fd_sc_hd__xnor2_1
*CAP
1 *173:A 0
2 *152:Y 0.00132415
3 *34:12 0.000300604
4 *34:6 0.00162476
5 *34:6 *41:29 7.72342e-05
6 *34:12 *36:12 0.000107538
7 *28:14 *34:12 0.000786872
8 *30:12 *34:12 0.00100292
9 *32:14 *34:6 2.93747e-05
*RES
1 *152:Y *34:6 38.8671 
2 *34:6 *34:12 43.1743 
3 *34:12 *173:A 23 
*END

*D_NET *35 0.00518513
*CONN
*I *174:A I *D sky130_fd_sc_hd__buf_2
*I *156:X O *D sky130_fd_sc_hd__clkbuf_1
*CAP
1 *174:A 0
2 *156:X 0.000579684
3 *35:12 0.0011878
4 *35:8 0.00176748
5 *35:8 *44:10 5.00965e-05
6 *35:12 *36:12 0
7 *35:12 *42:25 0
8 *154:A3 *35:12 0
9 *20:8 *35:12 2.35393e-05
10 *22:10 *35:12 0.00157654
11 *32:14 *35:12 0
*RES
1 *156:X *35:8 45.2914 
2 *35:8 *35:12 42.6121 
3 *35:12 *174:A 23 
*END

*D_NET *36 0.00609981
*CONN
*I *175:A I *D sky130_fd_sc_hd__clkbuf_4
*I *157:X O *D sky130_fd_sc_hd__xor2_1
*CAP
1 *175:A 3.8084e-05
2 *157:X 0.000904387
3 *36:12 0.00111281
4 *36:8 0.00197911
5 *36:8 *40:44 0.000395901
6 *36:8 *41:29 0.000130101
7 *153:D *36:8 6.9805e-05
8 *25:8 *36:8 3.84159e-05
9 *28:14 *36:12 0.00102757
10 *30:12 *36:12 1.52362e-05
11 *32:14 *36:12 0.000280856
12 *34:12 *36:12 0.000107538
13 *35:12 *36:12 0
*RES
1 *157:X *36:8 39.1157 
2 *36:8 *36:12 41.2036 
3 *36:12 *175:A 38.6214 
*END

*D_NET *37 0.00850953
*CONN
*I *158:A I *D sky130_fd_sc_hd__and2_1
*I *146:A I *D sky130_fd_sc_hd__or4_2
*I *145:A1 I *D sky130_fd_sc_hd__o31a_1
*I *143:A I *D sky130_fd_sc_hd__nor2_1
*I *162:X O *D sky130_fd_sc_hd__buf_1
*CAP
1 *158:A 0.000142699
2 *146:A 0
3 *145:A1 0.000207499
4 *143:A 0.000263824
5 *162:X 4.72659e-05
6 *37:14 0.00077993
7 *37:12 0.000389896
8 *37:10 0.000727541
9 *37:8 0.00055082
10 *143:A *154:A1 1.12487e-05
11 *145:A1 *149:A 0.000358526
12 *158:A *39:10 0.000358576
13 *37:10 *144:A 8.4047e-05
14 *37:10 *38:12 0.000912848
15 *37:10 *40:44 0.000210546
16 *37:12 *38:12 0.000192087
17 *37:12 *39:10 4.80445e-06
18 *37:14 *39:10 9.5956e-06
19 *143:B *143:A 0.000577168
20 *158:B *158:A 0.000399442
21 *159:A *143:A 0.000276214
22 *19:6 *143:A 0.000315092
23 *19:14 *143:A 0
24 *19:14 *37:14 0
25 *23:6 *145:A1 0.000514531
26 *28:6 *158:A 6.52749e-05
27 *29:14 *37:8 1.94812e-05
28 *29:16 *37:10 0
29 *29:22 *37:10 0
30 *29:33 *37:10 3.47781e-05
31 *29:33 *37:12 0.000126343
32 *29:37 *143:A 0.000219882
33 *29:37 *37:12 8.94487e-05
34 *29:37 *37:14 0.000620117
*RES
1 *162:X *37:8 38.6214 
2 *37:8 *37:10 13.5264 
3 *37:10 *37:12 2.96214 
4 *37:12 *37:14 8.24429 
5 *37:14 *143:A 47.6529 
6 *37:14 *145:A1 45.6229 
7 *37:12 *146:A 38 
8 *37:10 *158:A 43.3857 
*END

*D_NET *38 0.00714639
*CONN
*I *144:A I *D sky130_fd_sc_hd__xnor2_1
*I *145:A3 I *D sky130_fd_sc_hd__o31a_1
*I *146:C I *D sky130_fd_sc_hd__or4_2
*I *163:X O *D sky130_fd_sc_hd__buf_1
*CAP
1 *144:A 0.000292748
2 *145:A3 0
3 *146:C 0
4 *163:X 0.000481523
5 *38:25 0.00048774
6 *38:12 0.00110421
7 *38:8 0.00139074
8 *38:12 *39:10 7.52235e-05
9 *38:25 *39:25 0.000851361
10 *38:25 *42:25 0.000647894
11 *146:B *38:25 2.64616e-05
12 *19:14 *144:A 0
13 *19:14 *38:12 0
14 *21:53 *38:25 2.60152e-05
15 *21:72 *38:8 0.000495435
16 *24:8 *38:8 1.39431e-05
17 *29:14 *144:A 6.41126e-05
18 *37:10 *144:A 8.4047e-05
19 *37:10 *38:12 0.000912848
20 *37:12 *38:12 0.000192087
*RES
1 *163:X *38:8 45.2914 
2 *38:8 *38:12 29.935 
3 *38:12 *146:C 23 
4 *38:12 *38:25 44.4586 
5 *38:25 *145:A3 23 
6 *38:8 *144:A 42.5779 
*END

*D_NET *39 0.00429288
*CONN
*I *145:B1 I *D sky130_fd_sc_hd__o31a_1
*I *146:D I *D sky130_fd_sc_hd__or4_2
*I *164:X O *D sky130_fd_sc_hd__clkbuf_1
*CAP
1 *145:B1 0
2 *146:D 0
3 *164:X 0.000456467
4 *39:25 0.000455685
5 *39:12 0.000455685
6 *39:10 0.000456467
7 *158:A *39:10 0.000358576
8 *19:14 *39:10 7.30771e-05
9 *21:8 *39:25 0.000314157
10 *21:14 *39:25 0.000562267
11 *21:53 *39:25 3.47781e-05
12 *28:6 *39:10 0.000184741
13 *37:12 *39:10 4.80445e-06
14 *37:14 *39:10 9.5956e-06
15 *38:12 *39:10 7.52235e-05
16 *38:25 *39:25 0.000851361
*RES
1 *164:X *39:10 47.3007 
2 *39:10 *39:12 15 
3 *39:12 *146:D 23 
4 *39:12 *39:25 44.2307 
5 *39:25 *145:B1 23 
*END

*D_NET *40 0.0106315
*CONN
*I *153:A I *D sky130_fd_sc_hd__or4_1
*I *150:A I *D sky130_fd_sc_hd__and2_1
*I *149:A I *D sky130_fd_sc_hd__nor2_1
*I *154:A1 I *D sky130_fd_sc_hd__o31ai_1
*I *165:X O *D sky130_fd_sc_hd__buf_1
*CAP
1 *153:A 0
2 *150:A 0
3 *149:A 0.000465105
4 *154:A1 0.000358007
5 *165:X 0.000669198
6 *40:52 0.000484387
7 *40:44 0.000991508
8 *40:10 0.00103993
9 *40:8 0.00139314
10 *154:A1 *41:44 0
11 *154:A1 *42:25 0.000230484
12 *40:44 *41:29 0.000164364
13 *40:52 *42:25 1.01436e-05
14 *143:A *154:A1 1.12487e-05
15 *145:A1 *149:A 0.000358526
16 *148:A *40:52 0.000873415
17 *149:B *149:A 0
18 *153:D *40:44 9.84851e-05
19 *154:A3 *154:A1 0.000232185
20 *21:14 *154:A1 0
21 *21:14 *40:10 0
22 *21:16 *154:A1 0
23 *21:53 *40:44 0
24 *21:72 *40:52 0.000219129
25 *22:10 *40:52 0
26 *23:6 *149:A 0.0001157
27 *29:22 *40:44 0.000212702
28 *29:33 *40:44 0.000164282
29 *29:37 *154:A1 0.000274553
30 *29:37 *40:10 0.00042672
31 *29:37 *40:44 0.000206587
32 *32:6 *40:52 0.000785792
33 *33:8 *40:8 0.000239507
34 *36:8 *40:44 0.000395901
35 *37:10 *40:44 0.000210546
*RES
1 *165:X *40:8 46.7207 
2 *40:8 *40:10 5.77929 
3 *40:10 *154:A1 47.0107 
4 *40:10 *149:A 46.0993 
5 *40:8 *40:44 30.1421 
6 *40:44 *40:52 45.5771 
7 *40:52 *150:A 23 
8 *40:44 *153:A 23 
*END

*D_NET *41 0.00685637
*CONN
*I *154:A2 I *D sky130_fd_sc_hd__o31ai_1
*I *153:B I *D sky130_fd_sc_hd__or4_1
*I *152:A I *D sky130_fd_sc_hd__xnor2_1
*I *166:X O *D sky130_fd_sc_hd__buf_1
*CAP
1 *154:A2 0
2 *153:B 0
3 *152:A 0
4 *166:X 0
5 *41:44 0.000588967
6 *41:29 0.000542988
7 *41:12 0.00120945
8 *41:4 0.00125543
9 *41:12 *43:12 0.000263894
10 *41:44 *42:25 0.000121327
11 *41:44 *43:12 0
12 *153:D *41:29 9.84851e-05
13 *154:A1 *41:44 0
14 *154:A3 *41:44 7.95473e-05
15 *7:17 *41:12 0
16 *8:17 *41:12 0
17 *19:14 *41:29 0.000192077
18 *19:14 *41:44 0.000188916
19 *23:6 *41:44 0.000144166
20 *24:12 *41:12 0.00062326
21 *25:8 *41:29 0.000696235
22 *26:14 *41:29 0.000191429
23 *26:14 *41:44 0.000288491
24 *34:6 *41:29 7.72342e-05
25 *36:8 *41:29 0.000130101
26 *40:44 *41:29 0.000164364
*RES
1 *166:X *41:4 23 
2 *41:4 *41:12 46.0329 
3 *41:12 *152:A 23 
4 *41:12 *41:29 45.3079 
5 *41:29 *153:B 23 
6 *41:4 *41:44 40.4918 
7 *41:44 *154:A2 23 
*END

*D_NET *42 0.0055302
*CONN
*I *153:C I *D sky130_fd_sc_hd__or4_1
*I *154:B1 I *D sky130_fd_sc_hd__o31ai_1
*I *167:X O *D sky130_fd_sc_hd__buf_1
*CAP
1 *153:C 0
2 *154:B1 0
3 *167:X 9.67411e-05
4 *42:25 0.00149289
5 *42:12 0.00175342
6 *42:8 0.000357273
7 *42:8 *43:12 8.51329e-05
8 *154:A1 *42:25 0.000230484
9 *154:A3 *42:25 0.000313935
10 *20:8 *42:25 4.23714e-05
11 *21:14 *42:25 1.39664e-05
12 *21:53 *42:25 0.00019679
13 *21:72 *42:25 6.7177e-06
14 *22:10 *42:25 0
15 *29:56 *42:25 0.000161121
16 *35:12 *42:25 0
17 *38:25 *42:25 0.000647894
18 *40:52 *42:25 1.01436e-05
19 *41:44 *42:25 0.000121327
*RES
1 *167:X *42:8 40.2579 
2 *42:8 *42:12 18.9564 
3 *42:12 *154:B1 23 
4 *42:12 *42:25 47.5007 
5 *42:25 *153:C 38 
*END

*D_NET *43 0.00405525
*CONN
*I *157:A I *D sky130_fd_sc_hd__xor2_1
*I *168:X O *D sky130_fd_sc_hd__clkbuf_1
*CAP
1 *157:A 0
2 *168:X 5.01497e-05
3 *43:12 0.000818002
4 *43:8 0.000868152
5 *152:B *43:12 0.00063869
6 *8:17 *43:12 0
7 *23:10 *43:12 0.000468192
8 *24:12 *43:12 0.000863034
9 *26:14 *43:12 0
10 *41:12 *43:12 0.000263894
11 *41:44 *43:12 0
12 *42:8 *43:12 8.51329e-05
*RES
1 *168:X *43:8 38.6214 
2 *43:8 *43:12 39.795 
3 *43:12 *157:A 23 
*END

*D_NET *44 0.00160368
*CONN
*I *176:A I *D sky130_fd_sc_hd__buf_2
*I *160:X O *D sky130_fd_sc_hd__clkbuf_1
*CAP
1 *176:A 0
2 *160:X 0.000735138
3 *44:10 0.000735138
4 *22:10 *44:10 5.0135e-05
5 *31:12 *44:10 0
6 *32:14 *44:10 3.31683e-05
7 *35:8 *44:10 5.00965e-05
*RES
1 *160:X *44:10 49.0614 
2 *44:10 *176:A 38 
*END
