*SPEF "ieee 1481-1999"
*DESIGN "ALU"
*DATE "11:45:51 Sunday May 04, 2025"
*VENDOR "The OpenROAD Project"
*PROGRAM "OpenROAD"
*VERSION "b16bda7e82721d10566ff7e2b68f1ff0be9f9e38"
*DESIGN_FLOW "NAME_SCOPE LOCAL" "PIN_CAP NONE"
*DIVIDER /
*DELIMITER :
*BUS_DELIMITER []
*T_UNIT 1 NS
*C_UNIT 1 PF
*R_UNIT 1 OHM
*L_UNIT 1 HENRY

*NAME_MAP
*1 A[0]
*2 A[1]
*3 A[2]
*4 A[3]
*5 A[4]
*6 A[5]
*7 A[6]
*8 A[7]
*9 B[0]
*10 B[1]
*11 B[2]
*12 B[3]
*13 B[4]
*14 B[5]
*15 B[6]
*16 B[7]
*19 opcode[0]
*20 opcode[1]
*21 opcode[2]
*22 out[0]
*23 out[1]
*24 out[2]
*25 out[3]
*26 out[4]
*27 out[5]
*28 out[6]
*29 out[7]
*30 _000_
*31 _001_
*32 _002_
*33 _003_
*34 _004_
*35 _005_
*36 _006_
*37 _007_
*38 _008_
*39 _009_
*40 _010_
*41 _011_
*42 _012_
*43 _013_
*44 _014_
*45 _015_
*46 _016_
*47 _017_
*48 _018_
*49 _019_
*50 _020_
*51 _021_
*52 _022_
*53 _023_
*54 _024_
*55 _025_
*56 _026_
*57 _027_
*58 _028_
*59 _029_
*60 _030_
*61 _031_
*62 _032_
*63 _033_
*64 _034_
*65 _035_
*66 _036_
*67 _037_
*68 _038_
*69 _039_
*70 _040_
*71 _041_
*72 _042_
*73 _043_
*74 _044_
*75 _045_
*76 _046_
*77 _047_
*78 _048_
*79 _049_
*80 _050_
*81 _051_
*82 _052_
*83 _053_
*84 _054_
*85 _055_
*86 _056_
*87 _057_
*88 _058_
*89 _059_
*90 _060_
*91 _061_
*92 _062_
*93 _063_
*94 _064_
*95 _065_
*96 _066_
*97 _067_
*98 _068_
*99 _069_
*100 _070_
*101 _071_
*102 _072_
*103 _073_
*104 _074_
*105 _075_
*106 _076_
*107 _077_
*108 _078_
*109 _079_
*110 _080_
*111 _081_
*112 _082_
*113 _083_
*114 _084_
*115 _085_
*116 _086_
*117 _087_
*118 _088_
*119 _089_
*120 _090_
*121 _091_
*122 _092_
*123 _093_
*124 _094_
*125 _095_
*126 _096_
*127 _097_
*128 _098_
*129 _099_
*130 _100_
*131 _101_
*132 _102_
*133 _103_
*134 _104_
*135 _105_
*136 _106_
*137 _107_
*138 _108_
*139 _109_
*140 _110_
*141 _111_
*142 _112_
*143 _113_
*144 _114_
*145 _115_
*146 _116_
*147 _117_
*148 _118_
*149 _119_
*150 _120_
*151 _121_
*152 _122_
*153 _123_
*154 _124_
*155 _125_
*156 _126_
*157 _127_
*158 _128_
*159 _129_
*160 _130_
*161 _131_
*162 _132_
*163 _133_
*164 _134_
*165 _135_
*166 _136_
*167 _137_
*168 _138_
*169 _139_
*170 _140_
*171 _141_
*172 _142_
*173 _143_
*174 _144_
*175 _145_
*176 _146_
*177 _147_
*178 _148_
*179 _149_
*180 _150_
*181 _151_
*182 _152_
*183 _153_
*184 _154_
*185 _155_
*186 _156_
*187 _157_
*188 _158_
*189 _159_
*190 _160_
*191 _161_
*192 _162_
*193 _163_
*194 _164_
*195 _165_
*196 _166_
*197 _167_
*198 _168_
*199 _169_
*200 _170_
*201 _171_
*202 _172_
*203 _173_
*204 _174_
*205 _175_
*206 _176_
*207 _177_
*208 _178_
*209 _179_
*210 _180_
*211 _181_
*212 _182_
*213 _183_
*214 _184_
*215 _185_
*216 _186_
*217 _187_
*218 _188_
*219 _189_
*220 _190_
*221 _191_
*222 _192_
*223 _193_
*224 _194_
*225 _195_
*226 _196_
*227 _197_
*228 _198_
*229 _199_
*230 _200_
*231 _201_
*232 _202_
*233 _203_
*234 _204_
*235 _205_
*236 _206_
*237 _207_
*238 _208_
*239 _209_
*240 _210_
*241 _211_
*242 _212_
*243 _213_
*244 _214_
*245 _215_
*246 _216_
*247 _217_
*248 _218_
*249 _219_
*250 _220_
*251 _221_
*252 _222_
*253 _223_
*254 _224_
*255 _225_
*256 _226_
*257 _227_
*258 _228_
*259 _229_
*260 _230_
*261 _231_
*262 _232_
*263 _233_
*264 _234_
*265 _235_
*266 _236_
*267 _237_
*268 _238_
*269 _239_
*270 _240_
*271 _241_
*272 _242_
*273 _243_
*274 _244_
*275 _245_
*276 _246_
*277 _247_
*278 net1
*279 net10
*280 net11
*281 net12
*282 net13
*283 net14
*284 net15
*285 net16
*286 net17
*287 net18
*288 net19
*289 net2
*290 net20
*291 net21
*292 net22
*293 net23
*294 net24
*295 net25
*296 net26
*297 net27
*298 net28
*299 net29
*300 net3
*301 net30
*302 net31
*303 net32
*304 net33
*305 net34
*306 net35
*307 net36
*308 net37
*309 net38
*310 net39
*311 net4
*312 net40
*313 net41
*314 net42
*315 net43
*316 net44
*317 net45
*318 net46
*319 net47
*320 net48
*321 net49
*322 net5
*323 net50
*324 net51
*325 net52
*326 net53
*327 net54
*328 net55
*329 net56
*330 net57
*331 net58
*332 net59
*333 net6
*334 net60
*335 net61
*336 net62
*337 net63
*338 net64
*339 net65
*340 net66
*341 net7
*342 net8
*343 net9
*344 ANTENNA_1
*345 ANTENNA_10
*346 ANTENNA_11
*347 ANTENNA_12
*348 ANTENNA_13
*349 ANTENNA_14
*350 ANTENNA_15
*351 ANTENNA_16
*352 ANTENNA_17
*353 ANTENNA_18
*354 ANTENNA_19
*355 ANTENNA_2
*356 ANTENNA_20
*357 ANTENNA_21
*358 ANTENNA_22
*359 ANTENNA_23
*360 ANTENNA_24
*361 ANTENNA_25
*362 ANTENNA_26
*363 ANTENNA_27
*364 ANTENNA_28
*365 ANTENNA_29
*366 ANTENNA_3
*367 ANTENNA_30
*368 ANTENNA_31
*369 ANTENNA_32
*370 ANTENNA_33
*371 ANTENNA_34
*372 ANTENNA_35
*373 ANTENNA_36
*374 ANTENNA_4
*375 ANTENNA_5
*376 ANTENNA_6
*377 ANTENNA_7
*378 ANTENNA_8
*379 ANTENNA_9
*380 FILLER_0_0_109
*381 FILLER_0_0_113
*382 FILLER_0_0_125
*383 FILLER_0_0_135
*384 FILLER_0_0_139
*385 FILLER_0_0_141
*386 FILLER_0_0_153
*387 FILLER_0_0_165
*388 FILLER_0_0_169
*389 FILLER_0_0_181
*390 FILLER_0_0_186
*391 FILLER_0_0_192
*392 FILLER_0_0_197
*393 FILLER_0_0_209
*394 FILLER_0_0_21
*395 FILLER_0_0_221
*396 FILLER_0_0_225
*397 FILLER_0_0_237
*398 FILLER_0_0_243
*399 FILLER_0_0_249
*400 FILLER_0_0_253
*401 FILLER_0_0_265
*402 FILLER_0_0_27
*403 FILLER_0_0_277
*404 FILLER_0_0_281
*405 FILLER_0_0_29
*406 FILLER_0_0_293
*407 FILLER_0_0_3
*408 FILLER_0_0_301
*409 FILLER_0_0_307
*410 FILLER_0_0_309
*411 FILLER_0_0_321
*412 FILLER_0_0_333
*413 FILLER_0_0_337
*414 FILLER_0_0_349
*415 FILLER_0_0_357
*416 FILLER_0_0_363
*417 FILLER_0_0_365
*418 FILLER_0_0_377
*419 FILLER_0_0_389
*420 FILLER_0_0_393
*421 FILLER_0_0_405
*422 FILLER_0_0_41
*423 FILLER_0_0_411
*424 FILLER_0_0_414
*425 FILLER_0_0_421
*426 FILLER_0_0_53
*427 FILLER_0_0_57
*428 FILLER_0_0_78
*429 FILLER_0_0_85
*430 FILLER_0_0_97
*431 FILLER_0_100_114
*432 FILLER_0_100_126
*433 FILLER_0_100_138
*434 FILLER_0_100_141
*435 FILLER_0_100_15
*436 FILLER_0_100_153
*437 FILLER_0_100_165
*438 FILLER_0_100_177
*439 FILLER_0_100_189
*440 FILLER_0_100_195
*441 FILLER_0_100_197
*442 FILLER_0_100_209
*443 FILLER_0_100_221
*444 FILLER_0_100_233
*445 FILLER_0_100_245
*446 FILLER_0_100_251
*447 FILLER_0_100_253
*448 FILLER_0_100_265
*449 FILLER_0_100_27
*450 FILLER_0_100_280
*451 FILLER_0_100_29
*452 FILLER_0_100_292
*453 FILLER_0_100_3
*454 FILLER_0_100_304
*455 FILLER_0_100_309
*456 FILLER_0_100_321
*457 FILLER_0_100_333
*458 FILLER_0_100_345
*459 FILLER_0_100_357
*460 FILLER_0_100_363
*461 FILLER_0_100_365
*462 FILLER_0_100_377
*463 FILLER_0_100_389
*464 FILLER_0_100_401
*465 FILLER_0_100_41
*466 FILLER_0_100_413
*467 FILLER_0_100_419
*468 FILLER_0_100_421
*469 FILLER_0_100_53
*470 FILLER_0_100_65
*471 FILLER_0_100_77
*472 FILLER_0_100_83
*473 FILLER_0_100_85
*474 FILLER_0_101_105
*475 FILLER_0_101_111
*476 FILLER_0_101_113
*477 FILLER_0_101_125
*478 FILLER_0_101_137
*479 FILLER_0_101_149
*480 FILLER_0_101_15
*481 FILLER_0_101_161
*482 FILLER_0_101_167
*483 FILLER_0_101_176
*484 FILLER_0_101_188
*485 FILLER_0_101_200
*486 FILLER_0_101_212
*487 FILLER_0_101_225
*488 FILLER_0_101_237
*489 FILLER_0_101_249
*490 FILLER_0_101_261
*491 FILLER_0_101_27
*492 FILLER_0_101_273
*493 FILLER_0_101_279
*494 FILLER_0_101_281
*495 FILLER_0_101_293
*496 FILLER_0_101_3
*497 FILLER_0_101_305
*498 FILLER_0_101_317
*499 FILLER_0_101_329
*500 FILLER_0_101_335
*501 FILLER_0_101_337
*502 FILLER_0_101_349
*503 FILLER_0_101_361
*504 FILLER_0_101_373
*505 FILLER_0_101_385
*506 FILLER_0_101_39
*507 FILLER_0_101_391
*508 FILLER_0_101_393
*509 FILLER_0_101_405
*510 FILLER_0_101_411
*511 FILLER_0_101_51
*512 FILLER_0_101_55
*513 FILLER_0_101_57
*514 FILLER_0_101_69
*515 FILLER_0_101_81
*516 FILLER_0_101_93
*517 FILLER_0_102_109
*518 FILLER_0_102_121
*519 FILLER_0_102_133
*520 FILLER_0_102_139
*521 FILLER_0_102_141
*522 FILLER_0_102_15
*523 FILLER_0_102_153
*524 FILLER_0_102_165
*525 FILLER_0_102_177
*526 FILLER_0_102_189
*527 FILLER_0_102_195
*528 FILLER_0_102_197
*529 FILLER_0_102_203
*530 FILLER_0_102_218
*531 FILLER_0_102_230
*532 FILLER_0_102_242
*533 FILLER_0_102_250
*534 FILLER_0_102_257
*535 FILLER_0_102_269
*536 FILLER_0_102_27
*537 FILLER_0_102_277
*538 FILLER_0_102_281
*539 FILLER_0_102_29
*540 FILLER_0_102_291
*541 FILLER_0_102_3
*542 FILLER_0_102_303
*543 FILLER_0_102_307
*544 FILLER_0_102_309
*545 FILLER_0_102_321
*546 FILLER_0_102_333
*547 FILLER_0_102_345
*548 FILLER_0_102_357
*549 FILLER_0_102_363
*550 FILLER_0_102_365
*551 FILLER_0_102_377
*552 FILLER_0_102_389
*553 FILLER_0_102_401
*554 FILLER_0_102_41
*555 FILLER_0_102_413
*556 FILLER_0_102_419
*557 FILLER_0_102_421
*558 FILLER_0_102_53
*559 FILLER_0_102_65
*560 FILLER_0_102_77
*561 FILLER_0_102_83
*562 FILLER_0_102_85
*563 FILLER_0_102_97
*564 FILLER_0_103_105
*565 FILLER_0_103_111
*566 FILLER_0_103_113
*567 FILLER_0_103_125
*568 FILLER_0_103_133
*569 FILLER_0_103_149
*570 FILLER_0_103_161
*571 FILLER_0_103_167
*572 FILLER_0_103_169
*573 FILLER_0_103_181
*574 FILLER_0_103_19
*575 FILLER_0_103_193
*576 FILLER_0_103_205
*577 FILLER_0_103_217
*578 FILLER_0_103_223
*579 FILLER_0_103_225
*580 FILLER_0_103_237
*581 FILLER_0_103_249
*582 FILLER_0_103_261
*583 FILLER_0_103_273
*584 FILLER_0_103_279
*585 FILLER_0_103_281
*586 FILLER_0_103_293
*587 FILLER_0_103_305
*588 FILLER_0_103_31
*589 FILLER_0_103_317
*590 FILLER_0_103_329
*591 FILLER_0_103_335
*592 FILLER_0_103_337
*593 FILLER_0_103_349
*594 FILLER_0_103_361
*595 FILLER_0_103_373
*596 FILLER_0_103_385
*597 FILLER_0_103_391
*598 FILLER_0_103_393
*599 FILLER_0_103_423
*600 FILLER_0_103_43
*601 FILLER_0_103_55
*602 FILLER_0_103_57
*603 FILLER_0_103_69
*604 FILLER_0_103_81
*605 FILLER_0_103_93
*606 FILLER_0_104_109
*607 FILLER_0_104_121
*608 FILLER_0_104_133
*609 FILLER_0_104_139
*610 FILLER_0_104_141
*611 FILLER_0_104_15
*612 FILLER_0_104_153
*613 FILLER_0_104_165
*614 FILLER_0_104_177
*615 FILLER_0_104_189
*616 FILLER_0_104_195
*617 FILLER_0_104_197
*618 FILLER_0_104_209
*619 FILLER_0_104_221
*620 FILLER_0_104_233
*621 FILLER_0_104_246
*622 FILLER_0_104_253
*623 FILLER_0_104_265
*624 FILLER_0_104_27
*625 FILLER_0_104_277
*626 FILLER_0_104_289
*627 FILLER_0_104_29
*628 FILLER_0_104_3
*629 FILLER_0_104_301
*630 FILLER_0_104_307
*631 FILLER_0_104_309
*632 FILLER_0_104_326
*633 FILLER_0_104_338
*634 FILLER_0_104_350
*635 FILLER_0_104_362
*636 FILLER_0_104_365
*637 FILLER_0_104_377
*638 FILLER_0_104_389
*639 FILLER_0_104_40
*640 FILLER_0_104_401
*641 FILLER_0_104_407
*642 FILLER_0_104_419
*643 FILLER_0_104_421
*644 FILLER_0_104_52
*645 FILLER_0_104_60
*646 FILLER_0_104_68
*647 FILLER_0_104_80
*648 FILLER_0_104_85
*649 FILLER_0_104_97
*650 FILLER_0_105_105
*651 FILLER_0_105_111
*652 FILLER_0_105_113
*653 FILLER_0_105_125
*654 FILLER_0_105_137
*655 FILLER_0_105_149
*656 FILLER_0_105_15
*657 FILLER_0_105_161
*658 FILLER_0_105_167
*659 FILLER_0_105_169
*660 FILLER_0_105_181
*661 FILLER_0_105_193
*662 FILLER_0_105_199
*663 FILLER_0_105_211
*664 FILLER_0_105_223
*665 FILLER_0_105_225
*666 FILLER_0_105_237
*667 FILLER_0_105_249
*668 FILLER_0_105_261
*669 FILLER_0_105_27
*670 FILLER_0_105_273
*671 FILLER_0_105_279
*672 FILLER_0_105_281
*673 FILLER_0_105_293
*674 FILLER_0_105_3
*675 FILLER_0_105_305
*676 FILLER_0_105_317
*677 FILLER_0_105_329
*678 FILLER_0_105_335
*679 FILLER_0_105_337
*680 FILLER_0_105_349
*681 FILLER_0_105_361
*682 FILLER_0_105_373
*683 FILLER_0_105_385
*684 FILLER_0_105_39
*685 FILLER_0_105_391
*686 FILLER_0_105_393
*687 FILLER_0_105_405
*688 FILLER_0_105_51
*689 FILLER_0_105_55
*690 FILLER_0_105_57
*691 FILLER_0_105_69
*692 FILLER_0_105_81
*693 FILLER_0_105_93
*694 FILLER_0_106_109
*695 FILLER_0_106_121
*696 FILLER_0_106_133
*697 FILLER_0_106_139
*698 FILLER_0_106_141
*699 FILLER_0_106_15
*700 FILLER_0_106_153
*701 FILLER_0_106_165
*702 FILLER_0_106_177
*703 FILLER_0_106_189
*704 FILLER_0_106_195
*705 FILLER_0_106_204
*706 FILLER_0_106_216
*707 FILLER_0_106_231
*708 FILLER_0_106_243
*709 FILLER_0_106_251
*710 FILLER_0_106_253
*711 FILLER_0_106_265
*712 FILLER_0_106_27
*713 FILLER_0_106_277
*714 FILLER_0_106_289
*715 FILLER_0_106_29
*716 FILLER_0_106_3
*717 FILLER_0_106_301
*718 FILLER_0_106_307
*719 FILLER_0_106_318
*720 FILLER_0_106_330
*721 FILLER_0_106_369
*722 FILLER_0_106_381
*723 FILLER_0_106_393
*724 FILLER_0_106_405
*725 FILLER_0_106_41
*726 FILLER_0_106_417
*727 FILLER_0_106_421
*728 FILLER_0_106_53
*729 FILLER_0_106_65
*730 FILLER_0_106_77
*731 FILLER_0_106_83
*732 FILLER_0_106_85
*733 FILLER_0_106_97
*734 FILLER_0_107_100
*735 FILLER_0_107_113
*736 FILLER_0_107_125
*737 FILLER_0_107_137
*738 FILLER_0_107_149
*739 FILLER_0_107_15
*740 FILLER_0_107_161
*741 FILLER_0_107_167
*742 FILLER_0_107_169
*743 FILLER_0_107_181
*744 FILLER_0_107_193
*745 FILLER_0_107_199
*746 FILLER_0_107_211
*747 FILLER_0_107_223
*748 FILLER_0_107_225
*749 FILLER_0_107_237
*750 FILLER_0_107_249
*751 FILLER_0_107_261
*752 FILLER_0_107_27
*753 FILLER_0_107_273
*754 FILLER_0_107_279
*755 FILLER_0_107_281
*756 FILLER_0_107_293
*757 FILLER_0_107_3
*758 FILLER_0_107_301
*759 FILLER_0_107_312
*760 FILLER_0_107_324
*761 FILLER_0_107_337
*762 FILLER_0_107_349
*763 FILLER_0_107_361
*764 FILLER_0_107_373
*765 FILLER_0_107_385
*766 FILLER_0_107_39
*767 FILLER_0_107_391
*768 FILLER_0_107_393
*769 FILLER_0_107_401
*770 FILLER_0_107_406
*771 FILLER_0_107_414
*772 FILLER_0_107_426
*773 FILLER_0_107_51
*774 FILLER_0_107_55
*775 FILLER_0_107_57
*776 FILLER_0_107_69
*777 FILLER_0_107_73
*778 FILLER_0_107_88
*779 FILLER_0_108_106
*780 FILLER_0_108_118
*781 FILLER_0_108_130
*782 FILLER_0_108_138
*783 FILLER_0_108_141
*784 FILLER_0_108_153
*785 FILLER_0_108_16
*786 FILLER_0_108_165
*787 FILLER_0_108_177
*788 FILLER_0_108_189
*789 FILLER_0_108_195
*790 FILLER_0_108_197
*791 FILLER_0_108_209
*792 FILLER_0_108_221
*793 FILLER_0_108_233
*794 FILLER_0_108_245
*795 FILLER_0_108_251
*796 FILLER_0_108_253
*797 FILLER_0_108_265
*798 FILLER_0_108_277
*799 FILLER_0_108_289
*800 FILLER_0_108_301
*801 FILLER_0_108_307
*802 FILLER_0_108_309
*803 FILLER_0_108_321
*804 FILLER_0_108_333
*805 FILLER_0_108_345
*806 FILLER_0_108_357
*807 FILLER_0_108_363
*808 FILLER_0_108_365
*809 FILLER_0_108_37
*810 FILLER_0_108_377
*811 FILLER_0_108_389
*812 FILLER_0_108_401
*813 FILLER_0_108_41
*814 FILLER_0_108_413
*815 FILLER_0_108_419
*816 FILLER_0_108_421
*817 FILLER_0_108_53
*818 FILLER_0_108_65
*819 FILLER_0_108_77
*820 FILLER_0_108_83
*821 FILLER_0_108_94
*822 FILLER_0_109_105
*823 FILLER_0_109_111
*824 FILLER_0_109_113
*825 FILLER_0_109_125
*826 FILLER_0_109_138
*827 FILLER_0_109_15
*828 FILLER_0_109_150
*829 FILLER_0_109_162
*830 FILLER_0_109_169
*831 FILLER_0_109_183
*832 FILLER_0_109_195
*833 FILLER_0_109_207
*834 FILLER_0_109_219
*835 FILLER_0_109_223
*836 FILLER_0_109_225
*837 FILLER_0_109_237
*838 FILLER_0_109_249
*839 FILLER_0_109_261
*840 FILLER_0_109_27
*841 FILLER_0_109_273
*842 FILLER_0_109_279
*843 FILLER_0_109_281
*844 FILLER_0_109_293
*845 FILLER_0_109_3
*846 FILLER_0_109_305
*847 FILLER_0_109_317
*848 FILLER_0_109_329
*849 FILLER_0_109_335
*850 FILLER_0_109_337
*851 FILLER_0_109_349
*852 FILLER_0_109_361
*853 FILLER_0_109_373
*854 FILLER_0_109_385
*855 FILLER_0_109_39
*856 FILLER_0_109_391
*857 FILLER_0_109_393
*858 FILLER_0_109_405
*859 FILLER_0_109_417
*860 FILLER_0_109_51
*861 FILLER_0_109_55
*862 FILLER_0_109_57
*863 FILLER_0_109_69
*864 FILLER_0_109_81
*865 FILLER_0_109_93
*866 FILLER_0_10_109
*867 FILLER_0_10_121
*868 FILLER_0_10_133
*869 FILLER_0_10_139
*870 FILLER_0_10_141
*871 FILLER_0_10_15
*872 FILLER_0_10_153
*873 FILLER_0_10_168
*874 FILLER_0_10_180
*875 FILLER_0_10_192
*876 FILLER_0_10_197
*877 FILLER_0_10_209
*878 FILLER_0_10_221
*879 FILLER_0_10_233
*880 FILLER_0_10_245
*881 FILLER_0_10_251
*882 FILLER_0_10_253
*883 FILLER_0_10_265
*884 FILLER_0_10_27
*885 FILLER_0_10_277
*886 FILLER_0_10_29
*887 FILLER_0_10_3
*888 FILLER_0_10_305
*889 FILLER_0_10_309
*890 FILLER_0_10_321
*891 FILLER_0_10_333
*892 FILLER_0_10_345
*893 FILLER_0_10_357
*894 FILLER_0_10_363
*895 FILLER_0_10_365
*896 FILLER_0_10_377
*897 FILLER_0_10_389
*898 FILLER_0_10_402
*899 FILLER_0_10_41
*900 FILLER_0_10_414
*901 FILLER_0_10_421
*902 FILLER_0_10_53
*903 FILLER_0_10_65
*904 FILLER_0_10_77
*905 FILLER_0_10_83
*906 FILLER_0_10_85
*907 FILLER_0_10_97
*908 FILLER_0_110_109
*909 FILLER_0_110_134
*910 FILLER_0_110_141
*911 FILLER_0_110_15
*912 FILLER_0_110_153
*913 FILLER_0_110_165
*914 FILLER_0_110_177
*915 FILLER_0_110_183
*916 FILLER_0_110_195
*917 FILLER_0_110_197
*918 FILLER_0_110_205
*919 FILLER_0_110_216
*920 FILLER_0_110_228
*921 FILLER_0_110_240
*922 FILLER_0_110_253
*923 FILLER_0_110_265
*924 FILLER_0_110_27
*925 FILLER_0_110_277
*926 FILLER_0_110_289
*927 FILLER_0_110_29
*928 FILLER_0_110_3
*929 FILLER_0_110_301
*930 FILLER_0_110_307
*931 FILLER_0_110_309
*932 FILLER_0_110_321
*933 FILLER_0_110_333
*934 FILLER_0_110_345
*935 FILLER_0_110_357
*936 FILLER_0_110_363
*937 FILLER_0_110_378
*938 FILLER_0_110_390
*939 FILLER_0_110_402
*940 FILLER_0_110_41
*941 FILLER_0_110_414
*942 FILLER_0_110_421
*943 FILLER_0_110_53
*944 FILLER_0_110_65
*945 FILLER_0_110_71
*946 FILLER_0_110_83
*947 FILLER_0_110_85
*948 FILLER_0_110_97
*949 FILLER_0_111_105
*950 FILLER_0_111_111
*951 FILLER_0_111_113
*952 FILLER_0_111_125
*953 FILLER_0_111_137
*954 FILLER_0_111_149
*955 FILLER_0_111_15
*956 FILLER_0_111_161
*957 FILLER_0_111_167
*958 FILLER_0_111_169
*959 FILLER_0_111_190
*960 FILLER_0_111_202
*961 FILLER_0_111_214
*962 FILLER_0_111_222
*963 FILLER_0_111_225
*964 FILLER_0_111_237
*965 FILLER_0_111_249
*966 FILLER_0_111_261
*967 FILLER_0_111_27
*968 FILLER_0_111_273
*969 FILLER_0_111_279
*970 FILLER_0_111_281
*971 FILLER_0_111_293
*972 FILLER_0_111_3
*973 FILLER_0_111_305
*974 FILLER_0_111_317
*975 FILLER_0_111_329
*976 FILLER_0_111_335
*977 FILLER_0_111_337
*978 FILLER_0_111_349
*979 FILLER_0_111_361
*980 FILLER_0_111_373
*981 FILLER_0_111_385
*982 FILLER_0_111_39
*983 FILLER_0_111_391
*984 FILLER_0_111_393
*985 FILLER_0_111_405
*986 FILLER_0_111_417
*987 FILLER_0_111_51
*988 FILLER_0_111_55
*989 FILLER_0_111_57
*990 FILLER_0_111_69
*991 FILLER_0_111_75
*992 FILLER_0_111_81
*993 FILLER_0_111_93
*994 FILLER_0_112_109
*995 FILLER_0_112_121
*996 FILLER_0_112_133
*997 FILLER_0_112_139
*998 FILLER_0_112_141
*999 FILLER_0_112_15
*1000 FILLER_0_112_153
*1001 FILLER_0_112_165
*1002 FILLER_0_112_177
*1003 FILLER_0_112_183
*1004 FILLER_0_112_195
*1005 FILLER_0_112_197
*1006 FILLER_0_112_209
*1007 FILLER_0_112_221
*1008 FILLER_0_112_233
*1009 FILLER_0_112_245
*1010 FILLER_0_112_251
*1011 FILLER_0_112_253
*1012 FILLER_0_112_265
*1013 FILLER_0_112_27
*1014 FILLER_0_112_279
*1015 FILLER_0_112_283
*1016 FILLER_0_112_29
*1017 FILLER_0_112_292
*1018 FILLER_0_112_3
*1019 FILLER_0_112_304
*1020 FILLER_0_112_309
*1021 FILLER_0_112_321
*1022 FILLER_0_112_333
*1023 FILLER_0_112_345
*1024 FILLER_0_112_357
*1025 FILLER_0_112_363
*1026 FILLER_0_112_365
*1027 FILLER_0_112_377
*1028 FILLER_0_112_389
*1029 FILLER_0_112_401
*1030 FILLER_0_112_41
*1031 FILLER_0_112_413
*1032 FILLER_0_112_419
*1033 FILLER_0_112_421
*1034 FILLER_0_112_53
*1035 FILLER_0_112_65
*1036 FILLER_0_112_77
*1037 FILLER_0_112_83
*1038 FILLER_0_112_85
*1039 FILLER_0_112_97
*1040 FILLER_0_113_105
*1041 FILLER_0_113_111
*1042 FILLER_0_113_113
*1043 FILLER_0_113_125
*1044 FILLER_0_113_137
*1045 FILLER_0_113_149
*1046 FILLER_0_113_15
*1047 FILLER_0_113_161
*1048 FILLER_0_113_167
*1049 FILLER_0_113_169
*1050 FILLER_0_113_181
*1051 FILLER_0_113_193
*1052 FILLER_0_113_205
*1053 FILLER_0_113_217
*1054 FILLER_0_113_223
*1055 FILLER_0_113_225
*1056 FILLER_0_113_237
*1057 FILLER_0_113_249
*1058 FILLER_0_113_261
*1059 FILLER_0_113_27
*1060 FILLER_0_113_273
*1061 FILLER_0_113_279
*1062 FILLER_0_113_281
*1063 FILLER_0_113_293
*1064 FILLER_0_113_3
*1065 FILLER_0_113_305
*1066 FILLER_0_113_317
*1067 FILLER_0_113_329
*1068 FILLER_0_113_335
*1069 FILLER_0_113_337
*1070 FILLER_0_113_349
*1071 FILLER_0_113_361
*1072 FILLER_0_113_373
*1073 FILLER_0_113_385
*1074 FILLER_0_113_39
*1075 FILLER_0_113_391
*1076 FILLER_0_113_405
*1077 FILLER_0_113_417
*1078 FILLER_0_113_51
*1079 FILLER_0_113_55
*1080 FILLER_0_113_57
*1081 FILLER_0_113_69
*1082 FILLER_0_113_81
*1083 FILLER_0_113_93
*1084 FILLER_0_114_109
*1085 FILLER_0_114_121
*1086 FILLER_0_114_133
*1087 FILLER_0_114_139
*1088 FILLER_0_114_141
*1089 FILLER_0_114_15
*1090 FILLER_0_114_153
*1091 FILLER_0_114_165
*1092 FILLER_0_114_177
*1093 FILLER_0_114_189
*1094 FILLER_0_114_195
*1095 FILLER_0_114_197
*1096 FILLER_0_114_205
*1097 FILLER_0_114_227
*1098 FILLER_0_114_239
*1099 FILLER_0_114_251
*1100 FILLER_0_114_253
*1101 FILLER_0_114_265
*1102 FILLER_0_114_27
*1103 FILLER_0_114_277
*1104 FILLER_0_114_289
*1105 FILLER_0_114_29
*1106 FILLER_0_114_3
*1107 FILLER_0_114_301
*1108 FILLER_0_114_307
*1109 FILLER_0_114_309
*1110 FILLER_0_114_321
*1111 FILLER_0_114_333
*1112 FILLER_0_114_345
*1113 FILLER_0_114_358
*1114 FILLER_0_114_365
*1115 FILLER_0_114_377
*1116 FILLER_0_114_389
*1117 FILLER_0_114_401
*1118 FILLER_0_114_41
*1119 FILLER_0_114_413
*1120 FILLER_0_114_419
*1121 FILLER_0_114_421
*1122 FILLER_0_114_53
*1123 FILLER_0_114_65
*1124 FILLER_0_114_80
*1125 FILLER_0_114_85
*1126 FILLER_0_114_97
*1127 FILLER_0_115_105
*1128 FILLER_0_115_111
*1129 FILLER_0_115_113
*1130 FILLER_0_115_125
*1131 FILLER_0_115_137
*1132 FILLER_0_115_149
*1133 FILLER_0_115_15
*1134 FILLER_0_115_161
*1135 FILLER_0_115_167
*1136 FILLER_0_115_169
*1137 FILLER_0_115_181
*1138 FILLER_0_115_193
*1139 FILLER_0_115_205
*1140 FILLER_0_115_217
*1141 FILLER_0_115_223
*1142 FILLER_0_115_225
*1143 FILLER_0_115_237
*1144 FILLER_0_115_249
*1145 FILLER_0_115_261
*1146 FILLER_0_115_27
*1147 FILLER_0_115_273
*1148 FILLER_0_115_279
*1149 FILLER_0_115_281
*1150 FILLER_0_115_293
*1151 FILLER_0_115_3
*1152 FILLER_0_115_305
*1153 FILLER_0_115_317
*1154 FILLER_0_115_329
*1155 FILLER_0_115_335
*1156 FILLER_0_115_337
*1157 FILLER_0_115_349
*1158 FILLER_0_115_361
*1159 FILLER_0_115_373
*1160 FILLER_0_115_385
*1161 FILLER_0_115_39
*1162 FILLER_0_115_391
*1163 FILLER_0_115_393
*1164 FILLER_0_115_405
*1165 FILLER_0_115_417
*1166 FILLER_0_115_51
*1167 FILLER_0_115_55
*1168 FILLER_0_115_57
*1169 FILLER_0_115_69
*1170 FILLER_0_115_81
*1171 FILLER_0_115_93
*1172 FILLER_0_116_10
*1173 FILLER_0_116_109
*1174 FILLER_0_116_122
*1175 FILLER_0_116_134
*1176 FILLER_0_116_141
*1177 FILLER_0_116_153
*1178 FILLER_0_116_165
*1179 FILLER_0_116_177
*1180 FILLER_0_116_189
*1181 FILLER_0_116_195
*1182 FILLER_0_116_197
*1183 FILLER_0_116_20
*1184 FILLER_0_116_209
*1185 FILLER_0_116_221
*1186 FILLER_0_116_233
*1187 FILLER_0_116_24
*1188 FILLER_0_116_245
*1189 FILLER_0_116_251
*1190 FILLER_0_116_253
*1191 FILLER_0_116_265
*1192 FILLER_0_116_277
*1193 FILLER_0_116_289
*1194 FILLER_0_116_29
*1195 FILLER_0_116_3
*1196 FILLER_0_116_301
*1197 FILLER_0_116_307
*1198 FILLER_0_116_309
*1199 FILLER_0_116_321
*1200 FILLER_0_116_333
*1201 FILLER_0_116_345
*1202 FILLER_0_116_357
*1203 FILLER_0_116_363
*1204 FILLER_0_116_365
*1205 FILLER_0_116_377
*1206 FILLER_0_116_389
*1207 FILLER_0_116_401
*1208 FILLER_0_116_41
*1209 FILLER_0_116_413
*1210 FILLER_0_116_419
*1211 FILLER_0_116_421
*1212 FILLER_0_116_53
*1213 FILLER_0_116_65
*1214 FILLER_0_116_7
*1215 FILLER_0_116_77
*1216 FILLER_0_116_83
*1217 FILLER_0_116_85
*1218 FILLER_0_116_97
*1219 FILLER_0_117_105
*1220 FILLER_0_117_111
*1221 FILLER_0_117_113
*1222 FILLER_0_117_125
*1223 FILLER_0_117_137
*1224 FILLER_0_117_149
*1225 FILLER_0_117_15
*1226 FILLER_0_117_161
*1227 FILLER_0_117_167
*1228 FILLER_0_117_169
*1229 FILLER_0_117_181
*1230 FILLER_0_117_193
*1231 FILLER_0_117_205
*1232 FILLER_0_117_217
*1233 FILLER_0_117_223
*1234 FILLER_0_117_225
*1235 FILLER_0_117_237
*1236 FILLER_0_117_249
*1237 FILLER_0_117_261
*1238 FILLER_0_117_27
*1239 FILLER_0_117_273
*1240 FILLER_0_117_279
*1241 FILLER_0_117_281
*1242 FILLER_0_117_293
*1243 FILLER_0_117_3
*1244 FILLER_0_117_305
*1245 FILLER_0_117_317
*1246 FILLER_0_117_329
*1247 FILLER_0_117_335
*1248 FILLER_0_117_337
*1249 FILLER_0_117_349
*1250 FILLER_0_117_361
*1251 FILLER_0_117_390
*1252 FILLER_0_117_393
*1253 FILLER_0_117_405
*1254 FILLER_0_117_417
*1255 FILLER_0_117_43
*1256 FILLER_0_117_55
*1257 FILLER_0_117_57
*1258 FILLER_0_117_69
*1259 FILLER_0_117_81
*1260 FILLER_0_117_93
*1261 FILLER_0_118_109
*1262 FILLER_0_118_121
*1263 FILLER_0_118_133
*1264 FILLER_0_118_139
*1265 FILLER_0_118_141
*1266 FILLER_0_118_15
*1267 FILLER_0_118_153
*1268 FILLER_0_118_165
*1269 FILLER_0_118_177
*1270 FILLER_0_118_189
*1271 FILLER_0_118_195
*1272 FILLER_0_118_197
*1273 FILLER_0_118_209
*1274 FILLER_0_118_221
*1275 FILLER_0_118_233
*1276 FILLER_0_118_245
*1277 FILLER_0_118_251
*1278 FILLER_0_118_253
*1279 FILLER_0_118_265
*1280 FILLER_0_118_27
*1281 FILLER_0_118_271
*1282 FILLER_0_118_281
*1283 FILLER_0_118_29
*1284 FILLER_0_118_293
*1285 FILLER_0_118_3
*1286 FILLER_0_118_305
*1287 FILLER_0_118_322
*1288 FILLER_0_118_334
*1289 FILLER_0_118_346
*1290 FILLER_0_118_358
*1291 FILLER_0_118_365
*1292 FILLER_0_118_377
*1293 FILLER_0_118_389
*1294 FILLER_0_118_401
*1295 FILLER_0_118_41
*1296 FILLER_0_118_413
*1297 FILLER_0_118_419
*1298 FILLER_0_118_421
*1299 FILLER_0_118_53
*1300 FILLER_0_118_65
*1301 FILLER_0_118_78
*1302 FILLER_0_118_85
*1303 FILLER_0_118_97
*1304 FILLER_0_119_106
*1305 FILLER_0_119_113
*1306 FILLER_0_119_125
*1307 FILLER_0_119_137
*1308 FILLER_0_119_149
*1309 FILLER_0_119_15
*1310 FILLER_0_119_161
*1311 FILLER_0_119_167
*1312 FILLER_0_119_169
*1313 FILLER_0_119_181
*1314 FILLER_0_119_195
*1315 FILLER_0_119_207
*1316 FILLER_0_119_219
*1317 FILLER_0_119_223
*1318 FILLER_0_119_225
*1319 FILLER_0_119_237
*1320 FILLER_0_119_249
*1321 FILLER_0_119_261
*1322 FILLER_0_119_27
*1323 FILLER_0_119_273
*1324 FILLER_0_119_279
*1325 FILLER_0_119_281
*1326 FILLER_0_119_293
*1327 FILLER_0_119_3
*1328 FILLER_0_119_305
*1329 FILLER_0_119_317
*1330 FILLER_0_119_329
*1331 FILLER_0_119_335
*1332 FILLER_0_119_337
*1333 FILLER_0_119_349
*1334 FILLER_0_119_361
*1335 FILLER_0_119_373
*1336 FILLER_0_119_385
*1337 FILLER_0_119_39
*1338 FILLER_0_119_391
*1339 FILLER_0_119_415
*1340 FILLER_0_119_51
*1341 FILLER_0_119_55
*1342 FILLER_0_119_57
*1343 FILLER_0_119_69
*1344 FILLER_0_119_81
*1345 FILLER_0_11_105
*1346 FILLER_0_11_111
*1347 FILLER_0_11_113
*1348 FILLER_0_11_125
*1349 FILLER_0_11_137
*1350 FILLER_0_11_149
*1351 FILLER_0_11_15
*1352 FILLER_0_11_161
*1353 FILLER_0_11_167
*1354 FILLER_0_11_169
*1355 FILLER_0_11_181
*1356 FILLER_0_11_193
*1357 FILLER_0_11_205
*1358 FILLER_0_11_217
*1359 FILLER_0_11_223
*1360 FILLER_0_11_225
*1361 FILLER_0_11_237
*1362 FILLER_0_11_249
*1363 FILLER_0_11_261
*1364 FILLER_0_11_27
*1365 FILLER_0_11_273
*1366 FILLER_0_11_279
*1367 FILLER_0_11_281
*1368 FILLER_0_11_293
*1369 FILLER_0_11_3
*1370 FILLER_0_11_305
*1371 FILLER_0_11_317
*1372 FILLER_0_11_329
*1373 FILLER_0_11_335
*1374 FILLER_0_11_337
*1375 FILLER_0_11_349
*1376 FILLER_0_11_361
*1377 FILLER_0_11_373
*1378 FILLER_0_11_385
*1379 FILLER_0_11_39
*1380 FILLER_0_11_391
*1381 FILLER_0_11_393
*1382 FILLER_0_11_405
*1383 FILLER_0_11_417
*1384 FILLER_0_11_51
*1385 FILLER_0_11_55
*1386 FILLER_0_11_57
*1387 FILLER_0_11_69
*1388 FILLER_0_11_81
*1389 FILLER_0_11_93
*1390 FILLER_0_120_109
*1391 FILLER_0_120_117
*1392 FILLER_0_120_121
*1393 FILLER_0_120_136
*1394 FILLER_0_120_141
*1395 FILLER_0_120_15
*1396 FILLER_0_120_153
*1397 FILLER_0_120_165
*1398 FILLER_0_120_177
*1399 FILLER_0_120_189
*1400 FILLER_0_120_195
*1401 FILLER_0_120_197
*1402 FILLER_0_120_209
*1403 FILLER_0_120_221
*1404 FILLER_0_120_233
*1405 FILLER_0_120_245
*1406 FILLER_0_120_251
*1407 FILLER_0_120_253
*1408 FILLER_0_120_265
*1409 FILLER_0_120_27
*1410 FILLER_0_120_277
*1411 FILLER_0_120_289
*1412 FILLER_0_120_29
*1413 FILLER_0_120_301
*1414 FILLER_0_120_307
*1415 FILLER_0_120_309
*1416 FILLER_0_120_321
*1417 FILLER_0_120_333
*1418 FILLER_0_120_345
*1419 FILLER_0_120_357
*1420 FILLER_0_120_363
*1421 FILLER_0_120_365
*1422 FILLER_0_120_369
*1423 FILLER_0_120_383
*1424 FILLER_0_120_393
*1425 FILLER_0_120_402
*1426 FILLER_0_120_41
*1427 FILLER_0_120_414
*1428 FILLER_0_120_421
*1429 FILLER_0_120_53
*1430 FILLER_0_120_65
*1431 FILLER_0_120_77
*1432 FILLER_0_120_83
*1433 FILLER_0_120_85
*1434 FILLER_0_120_97
*1435 FILLER_0_121_105
*1436 FILLER_0_121_111
*1437 FILLER_0_121_113
*1438 FILLER_0_121_125
*1439 FILLER_0_121_137
*1440 FILLER_0_121_149
*1441 FILLER_0_121_15
*1442 FILLER_0_121_161
*1443 FILLER_0_121_167
*1444 FILLER_0_121_169
*1445 FILLER_0_121_181
*1446 FILLER_0_121_193
*1447 FILLER_0_121_205
*1448 FILLER_0_121_217
*1449 FILLER_0_121_223
*1450 FILLER_0_121_225
*1451 FILLER_0_121_259
*1452 FILLER_0_121_27
*1453 FILLER_0_121_271
*1454 FILLER_0_121_279
*1455 FILLER_0_121_281
*1456 FILLER_0_121_293
*1457 FILLER_0_121_3
*1458 FILLER_0_121_305
*1459 FILLER_0_121_317
*1460 FILLER_0_121_329
*1461 FILLER_0_121_335
*1462 FILLER_0_121_337
*1463 FILLER_0_121_349
*1464 FILLER_0_121_361
*1465 FILLER_0_121_373
*1466 FILLER_0_121_385
*1467 FILLER_0_121_39
*1468 FILLER_0_121_391
*1469 FILLER_0_121_393
*1470 FILLER_0_121_405
*1471 FILLER_0_121_417
*1472 FILLER_0_121_51
*1473 FILLER_0_121_55
*1474 FILLER_0_121_57
*1475 FILLER_0_121_69
*1476 FILLER_0_121_81
*1477 FILLER_0_121_93
*1478 FILLER_0_122_109
*1479 FILLER_0_122_117
*1480 FILLER_0_122_135
*1481 FILLER_0_122_139
*1482 FILLER_0_122_141
*1483 FILLER_0_122_15
*1484 FILLER_0_122_153
*1485 FILLER_0_122_165
*1486 FILLER_0_122_177
*1487 FILLER_0_122_189
*1488 FILLER_0_122_195
*1489 FILLER_0_122_197
*1490 FILLER_0_122_209
*1491 FILLER_0_122_221
*1492 FILLER_0_122_233
*1493 FILLER_0_122_245
*1494 FILLER_0_122_251
*1495 FILLER_0_122_253
*1496 FILLER_0_122_265
*1497 FILLER_0_122_27
*1498 FILLER_0_122_277
*1499 FILLER_0_122_289
*1500 FILLER_0_122_29
*1501 FILLER_0_122_3
*1502 FILLER_0_122_301
*1503 FILLER_0_122_307
*1504 FILLER_0_122_309
*1505 FILLER_0_122_321
*1506 FILLER_0_122_325
*1507 FILLER_0_122_331
*1508 FILLER_0_122_343
*1509 FILLER_0_122_355
*1510 FILLER_0_122_363
*1511 FILLER_0_122_365
*1512 FILLER_0_122_377
*1513 FILLER_0_122_389
*1514 FILLER_0_122_401
*1515 FILLER_0_122_41
*1516 FILLER_0_122_413
*1517 FILLER_0_122_419
*1518 FILLER_0_122_421
*1519 FILLER_0_122_53
*1520 FILLER_0_122_65
*1521 FILLER_0_122_77
*1522 FILLER_0_122_83
*1523 FILLER_0_122_85
*1524 FILLER_0_122_97
*1525 FILLER_0_123_109
*1526 FILLER_0_123_113
*1527 FILLER_0_123_125
*1528 FILLER_0_123_137
*1529 FILLER_0_123_141
*1530 FILLER_0_123_15
*1531 FILLER_0_123_153
*1532 FILLER_0_123_165
*1533 FILLER_0_123_169